pcf
* control data
restart  estimation
    8  3287     8     0     1
    1     1 single point   1   0   0
  5.0   2.0   0.3  0.03    10  999  lamforgive  derforgive
  3.0   3.0 0.001  0
  0.1
   30  0.01     3     3  0.01     3
    1     1     1     1
* parameter groups
fc           relative 0.01  0.0  switch  2.0 parabolic
beta         relative 0.01  0.0  switch  2.0 parabolic
perc         relative 0.01  0.0  switch  2.0 parabolic
uzl          relative 0.01  0.0  switch  2.0 parabolic
k0           relative 0.01  0.0  switch  2.0 parabolic
k1           relative 0.01  0.0  switch  2.0 parabolic
k2           relative 0.01  0.0  switch  2.0 parabolic
et_mult      relative 0.01  0.0  switch  2.0 parabolic
* parameter data
fc           none relative   536.06       50.000000  600.000000      fc              1.0000        0.0000      1
beta         none relative   4.828        1.000000    6.000000       beta            1.0000        0.0000      1
perc         none relative   0.200        0.000100    0.500000       perc            1.0000        0.0000      1
uzl          none relative   30.85        0.100000   75.000000       uzl             1.0000        0.0000      1
k0           none relative   0.274        0.050000    0.700000       k0              1.0000        0.0000      1
k1           none relative   0.151        0.010000    0.400000       k1              1.0000        0.0000      1
k2           none relative   0.0006	  0.000100    0.150000       k2              1.0000        0.0000      1
et_mult      none relative   1            0.100000    10.00000       et_mult         1.0000        0.0000      1
* observation groups
obsgroup
* observation data
obs1	2069.375000	1	obsgroup
obs2	1614.062500	1	obsgroup
obs3	1087.343750	1	obsgroup
obs4	873.833333	1	obsgroup
obs5	1384.385417	1	obsgroup
obs6	2006.458333	1	obsgroup
obs7	1336.458333	1	obsgroup
obs8	1001.229167	1	obsgroup
obs9	878.239583	1	obsgroup
obs10	725.468750	1	obsgroup
obs11	626.500000	1	obsgroup
obs12	661.864583	1	obsgroup
obs13	703.208333	1	obsgroup
obs14	736.958333	1	obsgroup
obs15	694.322917	1	obsgroup
obs16	1309.885417	1	obsgroup
obs17	1372.083333	1	obsgroup
obs18	1214.062500	1	obsgroup
obs19	952.656250	1	obsgroup
obs20	757.468750	1	obsgroup
obs21	636.375000	1	obsgroup
obs22	565.937500	1	obsgroup
obs23	515.572917	1	obsgroup
obs24	545.208333	1	obsgroup
obs25	878.208333	1	obsgroup
obs26	759.666667	1	obsgroup
obs27	630.760417	1	obsgroup
obs28	549.895833	1	obsgroup
obs29	487.083333	1	obsgroup
obs30	457.760417	1	obsgroup
obs31	440.489583	1	obsgroup
obs32	411.906250	1	obsgroup
obs33	450.531250	1	obsgroup
obs34	426.187500	1	obsgroup
obs35	475.000000	1	obsgroup
obs36	474.718750	1	obsgroup
obs37	434.947917	1	obsgroup
obs38	410.781250	1	obsgroup
obs39	373.020833	1	obsgroup
obs40	343.583333	1	obsgroup
obs41	326.583333	1	obsgroup
obs42	396.302083	1	obsgroup
obs43	579.656250	1	obsgroup
obs44	578.708333	1	obsgroup
obs45	597.552083	1	obsgroup
obs46	581.072917	1	obsgroup
obs47	626.739583	1	obsgroup
obs48	566.812500	1	obsgroup
obs49	505.447917	1	obsgroup
obs50	445.520833	1	obsgroup
obs51	394.406250	1	obsgroup
obs52	350.625000	1	obsgroup
obs53	311.729167	1	obsgroup
obs54	298.062500	1	obsgroup
obs55	500.010417	1	obsgroup
obs56	543.427083	1	obsgroup
obs57	561.114583	1	obsgroup
obs58	552.312500	1	obsgroup
obs59	475.104167	1	obsgroup
obs60	418.177083	1	obsgroup
obs61	382.822917	1	obsgroup
obs62	357.979167	1	obsgroup
obs63	341.770833	1	obsgroup
obs64	303.385417	1	obsgroup
obs65	276.187500	1	obsgroup
obs66	254.875000	1	obsgroup
obs67	283.187500	1	obsgroup
obs68	249.187500	1	obsgroup
obs69	245.781250	1	obsgroup
obs70	357.062500	1	obsgroup
obs71	1044.979167	1	obsgroup
obs72	936.527132	1	obsgroup
obs73	716.070652	1	obsgroup
obs74	604.494845	1	obsgroup
obs75	548.649485	1	obsgroup
obs76	499.734043	1	obsgroup
obs77	438.771277	1	obsgroup
obs78	391.051546	1	obsgroup
obs79	350.907216	1	obsgroup
obs80	375.814433	1	obsgroup
obs81	463.560811	1	obsgroup
obs82	406.145833	1	obsgroup
obs83	359.843750	1	obsgroup
obs84	484.562500	1	obsgroup
obs85	1069.302083	1	obsgroup
obs86	891.083333	1	obsgroup
obs87	879.656250	1	obsgroup
obs88	3568.854167	1	obsgroup
obs89	3310.520833	1	obsgroup
obs90	1937.291667	1	obsgroup
obs91	1301.041667	1	obsgroup
obs92	1397.916667	1	obsgroup
obs93	1378.229167	1	obsgroup
obs94	1138.437500	1	obsgroup
obs95	971.562500	1	obsgroup
obs96	907.458333	1	obsgroup
obs97	811.239583	1	obsgroup
obs98	870.479167	1	obsgroup
obs99	753.833333	1	obsgroup
obs100	669.791667	1	obsgroup
obs101	659.854167	1	obsgroup
obs102	657.229167	1	obsgroup
obs103	667.906250	1	obsgroup
obs104	668.270833	1	obsgroup
obs105	1140.468750	1	obsgroup
obs106	905.729167	1	obsgroup
obs107	777.718750	1	obsgroup
obs108	696.885417	1	obsgroup
obs109	647.906250	1	obsgroup
obs110	629.989583	1	obsgroup
obs111	777.062500	1	obsgroup
obs112	612.885417	1	obsgroup
obs113	514.364583	1	obsgroup
obs114	484.947917	1	obsgroup
obs115	426.656250	1	obsgroup
obs116	398.708333	1	obsgroup
obs117	998.427083	1	obsgroup
obs118	1245.104167	1	obsgroup
obs119	1172.708333	1	obsgroup
obs120	1008.312500	1	obsgroup
obs121	849.656250	1	obsgroup
obs122	727.854167	1	obsgroup
obs123	848.510417	1	obsgroup
obs124	820.197917	1	obsgroup
obs125	692.864583	1	obsgroup
obs126	604.718750	1	obsgroup
obs127	524.395833	1	obsgroup
obs128	463.041667	1	obsgroup
obs129	420.458333	1	obsgroup
obs130	456.541667	1	obsgroup
obs131	430.000000	1	obsgroup
obs132	391.760417	1	obsgroup
obs133	358.416667	1	obsgroup
obs134	327.822917	1	obsgroup
obs135	300.708333	1	obsgroup
obs136	279.260417	1	obsgroup
obs137	261.000000	1	obsgroup
obs138	273.270833	1	obsgroup
obs139	314.718750	1	obsgroup
obs140	447.520833	1	obsgroup
obs141	488.968750	1	obsgroup
obs142	689.843750	1	obsgroup
obs143	644.114583	1	obsgroup
obs144	575.656250	1	obsgroup
obs145	516.145833	1	obsgroup
obs146	615.052083	1	obsgroup
obs147	590.093750	1	obsgroup
obs148	505.177083	1	obsgroup
obs149	451.322917	1	obsgroup
obs150	403.041667	1	obsgroup
obs151	425.000000	1	obsgroup
obs152	410.500000	1	obsgroup
obs153	2331.875000	1	obsgroup
obs154	2541.250000	1	obsgroup
obs155	2899.895833	1	obsgroup
obs156	2025.312500	1	obsgroup
obs157	1343.854167	1	obsgroup
obs158	1183.750000	1	obsgroup
obs159	933.072917	1	obsgroup
obs160	865.791667	1	obsgroup
obs161	958.322917	1	obsgroup
obs162	952.947917	1	obsgroup
obs163	786.041667	1	obsgroup
obs164	654.333333	1	obsgroup
obs165	546.031250	1	obsgroup
obs166	474.364583	1	obsgroup
obs167	440.364583	1	obsgroup
obs168	404.041667	1	obsgroup
obs169	360.822917	1	obsgroup
obs170	328.427083	1	obsgroup
obs171	312.625000	1	obsgroup
obs172	288.645833	1	obsgroup
obs173	254.947917	1	obsgroup
obs174	231.000000	1	obsgroup
obs175	211.489583	1	obsgroup
obs176	195.614583	1	obsgroup
obs177	184.125000	1	obsgroup
obs178	169.187500	1	obsgroup
obs179	156.125000	1	obsgroup
obs180	146.531250	1	obsgroup
obs181	139.520833	1	obsgroup
obs182	130.312500	1	obsgroup
obs183	156.791667	1	obsgroup
obs184	142.895833	1	obsgroup
obs185	126.385417	1	obsgroup
obs186	115.968750	1	obsgroup
obs187	108.045833	1	obsgroup
obs188	97.626042	1	obsgroup
obs189	90.454167	1	obsgroup
obs190	85.344792	1	obsgroup
obs191	80.105208	1	obsgroup
obs192	78.873958	1	obsgroup
obs193	74.775000	1	obsgroup
obs194	72.401042	1	obsgroup
obs195	68.925000	1	obsgroup
obs196	66.150000	1	obsgroup
obs197	62.375000	1	obsgroup
obs198	59.985417	1	obsgroup
obs199	60.635417	1	obsgroup
obs200	57.710417	1	obsgroup
obs201	54.927083	1	obsgroup
obs202	53.448958	1	obsgroup
obs203	50.850000	1	obsgroup
obs204	49.209375	1	obsgroup
obs205	47.598958	1	obsgroup
obs206	45.719792	1	obsgroup
obs207	42.728125	1	obsgroup
obs208	40.128125	1	obsgroup
obs209	38.250000	1	obsgroup
obs210	38.347917	1	obsgroup
obs211	36.714583	1	obsgroup
obs212	36.453125	1	obsgroup
obs213	39.666667	1	obsgroup
obs214	36.676042	1	obsgroup
obs215	34.198958	1	obsgroup
obs216	33.402083	1	obsgroup
obs217	33.481250	1	obsgroup
obs218	31.877083	1	obsgroup
obs219	30.795833	1	obsgroup
obs220	31.047917	1	obsgroup
obs221	29.762500	1	obsgroup
obs222	30.093750	1	obsgroup
obs223	29.403125	1	obsgroup
obs224	27.617708	1	obsgroup
obs225	26.420833	1	obsgroup
obs226	23.593750	1	obsgroup
obs227	23.534375	1	obsgroup
obs228	22.551042	1	obsgroup
obs229	21.334375	1	obsgroup
obs230	20.730208	1	obsgroup
obs231	21.892708	1	obsgroup
obs232	21.766667	1	obsgroup
obs233	21.346875	1	obsgroup
obs234	22.609375	1	obsgroup
obs235	21.210417	1	obsgroup
obs236	19.691667	1	obsgroup
obs237	18.071875	1	obsgroup
obs238	17.329167	1	obsgroup
obs239	18.056250	1	obsgroup
obs240	18.623958	1	obsgroup
obs241	19.588542	1	obsgroup
obs242	21.401042	1	obsgroup
obs243	23.390625	1	obsgroup
obs244	24.812500	1	obsgroup
obs245	30.641667	1	obsgroup
obs246	24.375000	1	obsgroup
obs247	20.195833	1	obsgroup
obs248	19.872917	1	obsgroup
obs249	18.677083	1	obsgroup
obs250	18.768750	1	obsgroup
obs251	23.910417	1	obsgroup
obs252	29.317708	1	obsgroup
obs253	31.696875	1	obsgroup
obs254	24.765625	1	obsgroup
obs255	22.376042	1	obsgroup
obs256	20.112500	1	obsgroup
obs257	19.004167	1	obsgroup
obs258	19.519792	1	obsgroup
obs259	21.419792	1	obsgroup
obs260	22.305208	1	obsgroup
obs261	46.093750	1	obsgroup
obs262	130.373958	1	obsgroup
obs263	160.242708	1	obsgroup
obs264	74.235417	1	obsgroup
obs265	49.956250	1	obsgroup
obs266	40.956250	1	obsgroup
obs267	40.083333	1	obsgroup
obs268	36.496875	1	obsgroup
obs269	32.182292	1	obsgroup
obs270	30.360417	1	obsgroup
obs271	28.343750	1	obsgroup
obs272	27.273958	1	obsgroup
obs273	26.464130	1	obsgroup
obs274	25.446875	1	obsgroup
obs275	25.081250	1	obsgroup
obs276	24.581250	1	obsgroup
obs277	24.550000	1	obsgroup
obs278	23.689583	1	obsgroup
obs279	23.285417	1	obsgroup
obs280	22.437500	1	obsgroup
obs281	22.625000	1	obsgroup
obs282	33.752083	1	obsgroup
obs283	173.251042	1	obsgroup
obs284	152.932292	1	obsgroup
obs285	80.617708	1	obsgroup
obs286	60.440625	1	obsgroup
obs287	49.053125	1	obsgroup
obs288	43.423958	1	obsgroup
obs289	39.886458	1	obsgroup
obs290	36.881250	1	obsgroup
obs291	35.131250	1	obsgroup
obs292	33.300000	1	obsgroup
obs293	31.316667	1	obsgroup
obs294	29.501042	1	obsgroup
obs295	30.238542	1	obsgroup
obs296	36.436458	1	obsgroup
obs297	324.236458	1	obsgroup
obs298	711.020833	1	obsgroup
obs299	609.156250	1	obsgroup
obs300	423.375000	1	obsgroup
obs301	331.843750	1	obsgroup
obs302	320.947917	1	obsgroup
obs303	266.020833	1	obsgroup
obs304	365.343750	1	obsgroup
obs305	301.906250	1	obsgroup
obs306	602.510417	1	obsgroup
obs307	457.593750	1	obsgroup
obs308	344.947368	1	obsgroup
obs309	271.020833	1	obsgroup
obs310	227.520833	1	obsgroup
obs311	618.670000	1	obsgroup
obs312	582.781250	1	obsgroup
obs313	612.208333	1	obsgroup
obs314	895.781250	1	obsgroup
obs315	684.000000	1	obsgroup
obs316	548.291667	1	obsgroup
obs317	450.958333	1	obsgroup
obs318	483.572917	1	obsgroup
obs319	480.760417	1	obsgroup
obs320	551.562500	1	obsgroup
obs321	552.020833	1	obsgroup
obs322	2083.437500	1	obsgroup
obs323	1176.770833	1	obsgroup
obs324	940.760417	1	obsgroup
obs325	751.406250	1	obsgroup
obs326	731.718750	1	obsgroup
obs327	699.395833	1	obsgroup
obs328	533.541667	1	obsgroup
obs329	449.218750	1	obsgroup
obs330	528.885417	1	obsgroup
obs331	1097.375000	1	obsgroup
obs332	870.114583	1	obsgroup
obs333	707.500000	1	obsgroup
obs334	1049.697917	1	obsgroup
obs335	1988.750000	1	obsgroup
obs336	1438.854167	1	obsgroup
obs337	1072.802083	1	obsgroup
obs338	862.312500	1	obsgroup
obs339	721.218750	1	obsgroup
obs340	640.145833	1	obsgroup
obs341	582.885417	1	obsgroup
obs342	757.000000	1	obsgroup
obs343	1590.000000	1	obsgroup
obs344	1993.789474	1	obsgroup
obs345	1533.229167	1	obsgroup
obs346	1843.020833	1	obsgroup
obs347	3289.791667	1	obsgroup
obs348	2962.812500	1	obsgroup
obs349	1771.979167	1	obsgroup
obs350	1189.687500	1	obsgroup
obs351	946.656250	1	obsgroup
obs352	906.229167	1	obsgroup
obs353	798.812500	1	obsgroup
obs354	731.562500	1	obsgroup
obs355	663.687500	1	obsgroup
obs356	588.864583	1	obsgroup
obs357	513.916667	1	obsgroup
obs358	457.052083	1	obsgroup
obs359	435.302083	1	obsgroup
obs360	481.770833	1	obsgroup
obs361	556.854167	1	obsgroup
obs362	2216.822917	1	obsgroup
obs363	2507.604167	1	obsgroup
obs364	1290.520833	1	obsgroup
obs365	976.177083	1	obsgroup
obs366	800.833333	1	obsgroup
obs367	678.885417	1	obsgroup
obs368	584.104167	1	obsgroup
obs369	504.312500	1	obsgroup
obs370	456.715789	1	obsgroup
obs371	421.864583	1	obsgroup
obs372	397.916667	1	obsgroup
obs373	456.166667	1	obsgroup
obs374	417.718750	1	obsgroup
obs375	381.416667	1	obsgroup
obs376	350.385417	1	obsgroup
obs377	519.000000	1	obsgroup
obs378	1148.156250	1	obsgroup
obs379	1223.750000	1	obsgroup
obs380	1245.062500	1	obsgroup
obs381	4493.125000	1	obsgroup
obs382	2988.854167	1	obsgroup
obs383	1626.354167	1	obsgroup
obs384	1396.875000	1	obsgroup
obs385	1059.593750	1	obsgroup
obs386	922.885417	1	obsgroup
obs387	814.979167	1	obsgroup
obs388	705.125000	1	obsgroup
obs389	625.739583	1	obsgroup
obs390	548.645833	1	obsgroup
obs391	480.604167	1	obsgroup
obs392	434.187500	1	obsgroup
obs393	394.322917	1	obsgroup
obs394	361.218750	1	obsgroup
obs395	326.052083	1	obsgroup
obs396	299.166667	1	obsgroup
obs397	272.572917	1	obsgroup
obs398	250.968750	1	obsgroup
obs399	232.750000	1	obsgroup
obs400	217.625000	1	obsgroup
obs401	221.989583	1	obsgroup
obs402	229.500000	1	obsgroup
obs403	239.937500	1	obsgroup
obs404	246.531250	1	obsgroup
obs405	221.583333	1	obsgroup
obs406	206.093750	1	obsgroup
obs407	195.656250	1	obsgroup
obs408	189.270833	1	obsgroup
obs409	319.239583	1	obsgroup
obs410	317.500000	1	obsgroup
obs411	828.895833	1	obsgroup
obs412	803.104167	1	obsgroup
obs413	610.958333	1	obsgroup
obs414	501.343750	1	obsgroup
obs415	437.291667	1	obsgroup
obs416	381.395833	1	obsgroup
obs417	341.552083	1	obsgroup
obs418	318.156250	1	obsgroup
obs419	307.708333	1	obsgroup
obs420	304.531250	1	obsgroup
obs421	276.802083	1	obsgroup
obs422	254.791667	1	obsgroup
obs423	250.343750	1	obsgroup
obs424	601.822917	1	obsgroup
obs425	1322.812500	1	obsgroup
obs426	1058.218750	1	obsgroup
obs427	949.791667	1	obsgroup
obs428	834.250000	1	obsgroup
obs429	1034.468750	1	obsgroup
obs430	871.250000	1	obsgroup
obs431	733.354167	1	obsgroup
obs432	681.302083	1	obsgroup
obs433	808.791667	1	obsgroup
obs434	1601.760417	1	obsgroup
obs435	1265.937500	1	obsgroup
obs436	987.385417	1	obsgroup
obs437	972.902174	1	obsgroup
obs438	1132.708333	1	obsgroup
obs439	1146.770833	1	obsgroup
obs440	1669.895833	1	obsgroup
obs441	1387.916667	1	obsgroup
obs442	1117.916667	1	obsgroup
obs443	991.510417	1	obsgroup
obs444	849.218750	1	obsgroup
obs445	808.375000	1	obsgroup
obs446	786.479167	1	obsgroup
obs447	700.489583	1	obsgroup
obs448	681.979167	1	obsgroup
obs449	643.145833	1	obsgroup
obs450	711.718750	1	obsgroup
obs451	760.916667	1	obsgroup
obs452	779.437500	1	obsgroup
obs453	1054.260417	1	obsgroup
obs454	1455.000000	1	obsgroup
obs455	1289.687500	1	obsgroup
obs456	1136.354167	1	obsgroup
obs457	1194.583333	1	obsgroup
obs458	980.479167	1	obsgroup
obs459	850.937500	1	obsgroup
obs460	1162.395833	1	obsgroup
obs461	1029.687500	1	obsgroup
obs462	920.677083	1	obsgroup
obs463	786.468750	1	obsgroup
obs464	688.375000	1	obsgroup
obs465	616.197917	1	obsgroup
obs466	729.697917	1	obsgroup
obs467	659.218750	1	obsgroup
obs468	616.937500	1	obsgroup
obs469	667.052083	1	obsgroup
obs470	1087.385417	1	obsgroup
obs471	2182.500000	1	obsgroup
obs472	1827.812500	1	obsgroup
obs473	1164.791667	1	obsgroup
obs474	896.625000	1	obsgroup
obs475	742.062500	1	obsgroup
obs476	643.187500	1	obsgroup
obs477	556.427083	1	obsgroup
obs478	488.468750	1	obsgroup
obs479	486.531250	1	obsgroup
obs480	737.239583	1	obsgroup
obs481	883.562500	1	obsgroup
obs482	795.500000	1	obsgroup
obs483	755.135417	1	obsgroup
obs484	782.354167	1	obsgroup
obs485	721.854167	1	obsgroup
obs486	645.406250	1	obsgroup
obs487	596.302083	1	obsgroup
obs488	545.583333	1	obsgroup
obs489	493.666667	1	obsgroup
obs490	477.604167	1	obsgroup
obs491	471.343750	1	obsgroup
obs492	572.604167	1	obsgroup
obs493	645.354167	1	obsgroup
obs494	673.218750	1	obsgroup
obs495	604.416667	1	obsgroup
obs496	587.854167	1	obsgroup
obs497	638.791667	1	obsgroup
obs498	547.718750	1	obsgroup
obs499	505.333333	1	obsgroup
obs500	492.395833	1	obsgroup
obs501	531.177083	1	obsgroup
obs502	476.906250	1	obsgroup
obs503	455.250000	1	obsgroup
obs504	416.187500	1	obsgroup
obs505	391.177083	1	obsgroup
obs506	381.677083	1	obsgroup
obs507	354.020833	1	obsgroup
obs508	325.125000	1	obsgroup
obs509	305.114583	1	obsgroup
obs510	342.229167	1	obsgroup
obs511	360.114583	1	obsgroup
obs512	659.177083	1	obsgroup
obs513	768.583333	1	obsgroup
obs514	717.718750	1	obsgroup
obs515	671.416667	1	obsgroup
obs516	729.197917	1	obsgroup
obs517	961.020833	1	obsgroup
obs518	826.885417	1	obsgroup
obs519	699.927083	1	obsgroup
obs520	606.468750	1	obsgroup
obs521	539.864583	1	obsgroup
obs522	491.145833	1	obsgroup
obs523	429.687500	1	obsgroup
obs524	375.270833	1	obsgroup
obs525	329.812500	1	obsgroup
obs526	302.145833	1	obsgroup
obs527	280.333333	1	obsgroup
obs528	256.375000	1	obsgroup
obs529	275.927083	1	obsgroup
obs530	241.166667	1	obsgroup
obs531	215.322917	1	obsgroup
obs532	195.968750	1	obsgroup
obs533	177.239583	1	obsgroup
obs534	181.625000	1	obsgroup
obs535	202.416667	1	obsgroup
obs536	172.041667	1	obsgroup
obs537	156.531250	1	obsgroup
obs538	145.375000	1	obsgroup
obs539	138.770833	1	obsgroup
obs540	129.125000	1	obsgroup
obs541	120.312500	1	obsgroup
obs542	113.760417	1	obsgroup
obs543	108.541667	1	obsgroup
obs544	119.270833	1	obsgroup
obs545	113.156250	1	obsgroup
obs546	123.114583	1	obsgroup
obs547	111.260417	1	obsgroup
obs548	98.292708	1	obsgroup
obs549	92.410417	1	obsgroup
obs550	86.887500	1	obsgroup
obs551	81.026042	1	obsgroup
obs552	76.750000	1	obsgroup
obs553	72.941667	1	obsgroup
obs554	73.426042	1	obsgroup
obs555	67.625000	1	obsgroup
obs556	66.212500	1	obsgroup
obs557	64.212500	1	obsgroup
obs558	70.010417	1	obsgroup
obs559	79.608333	1	obsgroup
obs560	68.555208	1	obsgroup
obs561	61.567708	1	obsgroup
obs562	69.546875	1	obsgroup
obs563	100.768750	1	obsgroup
obs564	96.604167	1	obsgroup
obs565	102.221875	1	obsgroup
obs566	104.695833	1	obsgroup
obs567	85.253125	1	obsgroup
obs568	78.414583	1	obsgroup
obs569	70.312500	1	obsgroup
obs570	64.450000	1	obsgroup
obs571	58.991667	1	obsgroup
obs572	57.287500	1	obsgroup
obs573	53.322917	1	obsgroup
obs574	51.122917	1	obsgroup
obs575	49.078125	1	obsgroup
obs576	46.227083	1	obsgroup
obs577	45.512500	1	obsgroup
obs578	42.848958	1	obsgroup
obs579	40.607292	1	obsgroup
obs580	40.873958	1	obsgroup
obs581	42.262500	1	obsgroup
obs582	42.459375	1	obsgroup
obs583	41.357292	1	obsgroup
obs584	40.983333	1	obsgroup
obs585	40.551042	1	obsgroup
obs586	41.366667	1	obsgroup
obs587	37.305208	1	obsgroup
obs588	34.493750	1	obsgroup
obs589	33.185417	1	obsgroup
obs590	32.713542	1	obsgroup
obs591	35.883333	1	obsgroup
obs592	33.279167	1	obsgroup
obs593	31.632292	1	obsgroup
obs594	29.714583	1	obsgroup
obs595	29.059375	1	obsgroup
obs596	28.477083	1	obsgroup
obs597	27.863542	1	obsgroup
obs598	28.204167	1	obsgroup
obs599	25.979167	1	obsgroup
obs600	25.984375	1	obsgroup
obs601	25.344792	1	obsgroup
obs602	23.708333	1	obsgroup
obs603	24.928125	1	obsgroup
obs604	25.031250	1	obsgroup
obs605	24.587500	1	obsgroup
obs606	23.103125	1	obsgroup
obs607	23.854167	1	obsgroup
obs608	23.622917	1	obsgroup
obs609	23.381250	1	obsgroup
obs610	22.812500	1	obsgroup
obs611	22.463542	1	obsgroup
obs612	22.051042	1	obsgroup
obs613	20.215625	1	obsgroup
obs614	18.956250	1	obsgroup
obs615	18.879167	1	obsgroup
obs616	17.875000	1	obsgroup
obs617	17.728125	1	obsgroup
obs618	17.727083	1	obsgroup
obs619	18.338542	1	obsgroup
obs620	17.254167	1	obsgroup
obs621	17.568750	1	obsgroup
obs622	18.319792	1	obsgroup
obs623	18.606250	1	obsgroup
obs624	18.262500	1	obsgroup
obs625	18.944792	1	obsgroup
obs626	19.821875	1	obsgroup
obs627	20.984375	1	obsgroup
obs628	21.176042	1	obsgroup
obs629	20.157292	1	obsgroup
obs630	18.041667	1	obsgroup
obs631	17.634375	1	obsgroup
obs632	17.060417	1	obsgroup
obs633	18.383333	1	obsgroup
obs634	23.335417	1	obsgroup
obs635	24.642708	1	obsgroup
obs636	27.890625	1	obsgroup
obs637	23.754167	1	obsgroup
obs638	21.023958	1	obsgroup
obs639	20.205208	1	obsgroup
obs640	25.652083	1	obsgroup
obs641	44.559375	1	obsgroup
obs642	50.609375	1	obsgroup
obs643	67.550000	1	obsgroup
obs644	64.502083	1	obsgroup
obs645	42.155789	1	obsgroup
obs646	38.784375	1	obsgroup
obs647	34.762500	1	obsgroup
obs648	39.130208	1	obsgroup
obs649	149.541667	1	obsgroup
obs650	129.875000	1	obsgroup
obs651	79.977083	1	obsgroup
obs652	63.330208	1	obsgroup
obs653	53.586458	1	obsgroup
obs654	48.833333	1	obsgroup
obs655	44.965625	1	obsgroup
obs656	41.222917	1	obsgroup
obs657	38.015625	1	obsgroup
obs658	36.679167	1	obsgroup
obs659	35.413542	1	obsgroup
obs660	34.440625	1	obsgroup
obs661	33.965625	1	obsgroup
obs662	32.957292	1	obsgroup
obs663	31.500000	1	obsgroup
obs664	30.716667	1	obsgroup
obs665	30.266667	1	obsgroup
obs666	30.309375	1	obsgroup
obs667	50.789583	1	obsgroup
obs668	74.635417	1	obsgroup
obs669	178.385417	1	obsgroup
obs670	104.945833	1	obsgroup
obs671	78.902083	1	obsgroup
obs672	107.611458	1	obsgroup
obs673	89.356250	1	obsgroup
obs674	75.570833	1	obsgroup
obs675	80.570000	1	obsgroup
obs676	75.555208	1	obsgroup
obs677	71.489583	1	obsgroup
obs678	68.650000	1	obsgroup
obs679	64.437500	1	obsgroup
obs680	60.222917	1	obsgroup
obs681	80.728125	1	obsgroup
obs682	102.444792	1	obsgroup
obs683	112.489583	1	obsgroup
obs684	131.791667	1	obsgroup
obs685	156.958333	1	obsgroup
obs686	1015.416667	1	obsgroup
obs687	741.031250	1	obsgroup
obs688	538.927083	1	obsgroup
obs689	379.229167	1	obsgroup
obs690	358.156250	1	obsgroup
obs691	1221.302083	1	obsgroup
obs692	1317.500000	1	obsgroup
obs693	1096.427083	1	obsgroup
obs694	862.354167	1	obsgroup
obs695	634.552083	1	obsgroup
obs696	581.218750	1	obsgroup
obs697	765.718750	1	obsgroup
obs698	579.458333	1	obsgroup
obs699	485.781250	1	obsgroup
obs700	408.802083	1	obsgroup
obs701	355.260417	1	obsgroup
obs702	304.093750	1	obsgroup
obs703	264.458333	1	obsgroup
obs704	234.187500	1	obsgroup
obs705	209.510417	1	obsgroup
obs706	188.291667	1	obsgroup
obs707	172.593750	1	obsgroup
obs708	159.635417	1	obsgroup
obs709	148.302083	1	obsgroup
obs710	140.020833	1	obsgroup
obs711	131.802083	1	obsgroup
obs712	124.583333	1	obsgroup
obs713	118.687500	1	obsgroup
obs714	120.197917	1	obsgroup
obs715	113.854167	1	obsgroup
obs716	108.270833	1	obsgroup
obs717	106.291667	1	obsgroup
obs718	103.316667	1	obsgroup
obs719	98.667708	1	obsgroup
obs720	96.322917	1	obsgroup
obs721	91.811458	1	obsgroup
obs722	88.682292	1	obsgroup
obs723	86.039583	1	obsgroup
obs724	91.039583	1	obsgroup
obs725	111.500000	1	obsgroup
obs726	112.779167	1	obsgroup
obs727	2344.937500	1	obsgroup
obs728	3294.375000	1	obsgroup
obs729	7045.937500	1	obsgroup
obs730	2425.937500	1	obsgroup
obs731	1190.302083	1	obsgroup
obs732	887.072917	1	obsgroup
obs733	805.593750	1	obsgroup
obs734	665.864583	1	obsgroup
obs735	693.500000	1	obsgroup
obs736	570.208333	1	obsgroup
obs737	491.406250	1	obsgroup
obs738	437.208333	1	obsgroup
obs739	394.177083	1	obsgroup
obs740	368.802083	1	obsgroup
obs741	324.677083	1	obsgroup
obs742	295.156250	1	obsgroup
obs743	270.114583	1	obsgroup
obs744	260.322917	1	obsgroup
obs745	268.364583	1	obsgroup
obs746	246.072917	1	obsgroup
obs747	384.416667	1	obsgroup
obs748	5610.239583	1	obsgroup
obs749	15273.958333	1	obsgroup
obs750	4826.842105	1	obsgroup
obs751	3666.875000	1	obsgroup
obs752	1982.812500	1	obsgroup
obs753	1578.854167	1	obsgroup
obs754	1702.187500	1	obsgroup
obs755	2510.104167	1	obsgroup
obs756	2038.958333	1	obsgroup
obs757	1455.208333	1	obsgroup
obs758	1089.708333	1	obsgroup
obs759	991.656250	1	obsgroup
obs760	1388.750000	1	obsgroup
obs761	1031.958333	1	obsgroup
obs762	932.031250	1	obsgroup
obs763	789.135417	1	obsgroup
obs764	684.833333	1	obsgroup
obs765	597.937500	1	obsgroup
obs766	529.239583	1	obsgroup
obs767	475.843750	1	obsgroup
obs768	431.656250	1	obsgroup
obs769	434.562500	1	obsgroup
obs770	544.458333	1	obsgroup
obs771	573.625000	1	obsgroup
obs772	824.770833	1	obsgroup
obs773	658.989583	1	obsgroup
obs774	575.406250	1	obsgroup
obs775	525.125000	1	obsgroup
obs776	479.427083	1	obsgroup
obs777	436.281250	1	obsgroup
obs778	460.677083	1	obsgroup
obs779	690.312500	1	obsgroup
obs780	633.645833	1	obsgroup
obs781	683.791667	1	obsgroup
obs782	945.104167	1	obsgroup
obs783	1134.906250	1	obsgroup
obs784	1034.552083	1	obsgroup
obs785	824.187500	1	obsgroup
obs786	848.333333	1	obsgroup
obs787	728.572917	1	obsgroup
obs788	645.833333	1	obsgroup
obs789	594.062500	1	obsgroup
obs790	664.687500	1	obsgroup
obs791	696.531250	1	obsgroup
obs792	626.979167	1	obsgroup
obs793	594.145833	1	obsgroup
obs794	597.656250	1	obsgroup
obs795	674.354167	1	obsgroup
obs796	751.020833	1	obsgroup
obs797	645.000000	1	obsgroup
obs798	587.281250	1	obsgroup
obs799	572.729167	1	obsgroup
obs800	589.958333	1	obsgroup
obs801	787.673913	1	obsgroup
obs802	760.197917	1	obsgroup
obs803	1392.916667	1	obsgroup
obs804	1154.479167	1	obsgroup
obs805	2638.958333	1	obsgroup
obs806	3937.916667	1	obsgroup
obs807	2072.291667	1	obsgroup
obs808	1460.833333	1	obsgroup
obs809	1122.291667	1	obsgroup
obs810	1411.770833	1	obsgroup
obs811	2037.826087	1	obsgroup
obs812	1944.141414	1	obsgroup
obs813	1467.628866	1	obsgroup
obs814	1225.625000	1	obsgroup
obs815	1111.666667	1	obsgroup
obs816	977.250000	1	obsgroup
obs817	893.473684	1	obsgroup
obs818	912.635417	1	obsgroup
obs819	1056.322917	1	obsgroup
obs820	5077.083333	1	obsgroup
obs821	3423.125000	1	obsgroup
obs822	2110.520833	1	obsgroup
obs823	1512.500000	1	obsgroup
obs824	1283.020833	1	obsgroup
obs825	1197.395833	1	obsgroup
obs826	1148.645833	1	obsgroup
obs827	963.031250	1	obsgroup
obs828	815.781250	1	obsgroup
obs829	714.510417	1	obsgroup
obs830	649.833333	1	obsgroup
obs831	621.072917	1	obsgroup
obs832	649.302083	1	obsgroup
obs833	638.093750	1	obsgroup
obs834	569.927083	1	obsgroup
obs835	516.125000	1	obsgroup
obs836	480.062500	1	obsgroup
obs837	898.729167	1	obsgroup
obs838	938.052083	1	obsgroup
obs839	1097.510417	1	obsgroup
obs840	1154.531250	1	obsgroup
obs841	1368.020833	1	obsgroup
obs842	1062.218750	1	obsgroup
obs843	903.114583	1	obsgroup
obs844	821.843750	1	obsgroup
obs845	737.031250	1	obsgroup
obs846	643.729167	1	obsgroup
obs847	956.812500	1	obsgroup
obs848	998.781250	1	obsgroup
obs849	830.177083	1	obsgroup
obs850	706.104167	1	obsgroup
obs851	848.156250	1	obsgroup
obs852	892.843750	1	obsgroup
obs853	803.583333	1	obsgroup
obs854	971.177083	1	obsgroup
obs855	1075.312500	1	obsgroup
obs856	981.156250	1	obsgroup
obs857	822.604167	1	obsgroup
obs858	702.750000	1	obsgroup
obs859	609.656250	1	obsgroup
obs860	532.589474	1	obsgroup
obs861	460.552083	1	obsgroup
obs862	406.458333	1	obsgroup
obs863	363.718750	1	obsgroup
obs864	331.635417	1	obsgroup
obs865	311.468750	1	obsgroup
obs866	290.750000	1	obsgroup
obs867	264.322917	1	obsgroup
obs868	238.875000	1	obsgroup
obs869	217.625000	1	obsgroup
obs870	199.979167	1	obsgroup
obs871	187.604167	1	obsgroup
obs872	207.093750	1	obsgroup
obs873	314.937500	1	obsgroup
obs874	317.458333	1	obsgroup
obs875	427.270833	1	obsgroup
obs876	498.479167	1	obsgroup
obs877	396.458333	1	obsgroup
obs878	328.500000	1	obsgroup
obs879	285.791667	1	obsgroup
obs880	255.645833	1	obsgroup
obs881	226.593750	1	obsgroup
obs882	204.614583	1	obsgroup
obs883	189.229167	1	obsgroup
obs884	211.427083	1	obsgroup
obs885	185.645833	1	obsgroup
obs886	302.645833	1	obsgroup
obs887	774.062500	1	obsgroup
obs888	588.739583	1	obsgroup
obs889	549.364583	1	obsgroup
obs890	637.739583	1	obsgroup
obs891	919.875000	1	obsgroup
obs892	724.833333	1	obsgroup
obs893	567.072917	1	obsgroup
obs894	479.052083	1	obsgroup
obs895	451.666667	1	obsgroup
obs896	382.229167	1	obsgroup
obs897	327.125000	1	obsgroup
obs898	288.604167	1	obsgroup
obs899	258.416667	1	obsgroup
obs900	252.145833	1	obsgroup
obs901	258.541667	1	obsgroup
obs902	225.447917	1	obsgroup
obs903	203.541667	1	obsgroup
obs904	190.864583	1	obsgroup
obs905	240.718750	1	obsgroup
obs906	255.395833	1	obsgroup
obs907	228.697917	1	obsgroup
obs908	276.739583	1	obsgroup
obs909	278.291667	1	obsgroup
obs910	237.739583	1	obsgroup
obs911	212.895833	1	obsgroup
obs912	199.104167	1	obsgroup
obs913	211.208333	1	obsgroup
obs914	191.802083	1	obsgroup
obs915	192.656250	1	obsgroup
obs916	182.052083	1	obsgroup
obs917	162.812500	1	obsgroup
obs918	149.062500	1	obsgroup
obs919	138.708333	1	obsgroup
obs920	129.687500	1	obsgroup
obs921	120.822917	1	obsgroup
obs922	112.875000	1	obsgroup
obs923	106.347917	1	obsgroup
obs924	101.060417	1	obsgroup
obs925	96.779167	1	obsgroup
obs926	92.251042	1	obsgroup
obs927	90.326042	1	obsgroup
obs928	87.277083	1	obsgroup
obs929	83.744792	1	obsgroup
obs930	80.905208	1	obsgroup
obs931	82.241237	1	obsgroup
obs932	79.510204	1	obsgroup
obs933	78.044898	1	obsgroup
obs934	72.039796	1	obsgroup
obs935	71.061856	1	obsgroup
obs936	65.137500	1	obsgroup
obs937	62.319792	1	obsgroup
obs938	59.482292	1	obsgroup
obs939	58.400000	1	obsgroup
obs940	58.341667	1	obsgroup
obs941	56.382292	1	obsgroup
obs942	55.110417	1	obsgroup
obs943	52.016667	1	obsgroup
obs944	49.334375	1	obsgroup
obs945	46.388542	1	obsgroup
obs946	45.147917	1	obsgroup
obs947	43.397917	1	obsgroup
obs948	39.352083	1	obsgroup
obs949	39.569792	1	obsgroup
obs950	37.696875	1	obsgroup
obs951	37.102083	1	obsgroup