pcf
* control data
restart  estimation
    8  3287     8     0     1
    1     1 single point   1   0   0
  5.0   2.0   0.3  0.03    10  999  lamforgive  derforgive
  3.0   3.0 0.001  0
  0.1
   30  0.01     3     3  0.01     3
    1     1     1     1
* parameter groups
fc           relative 0.01  0.0  switch  2.0 parabolic
beta         relative 0.01  0.0  switch  2.0 parabolic
perc         relative 0.01  0.0  switch  2.0 parabolic
uzl          relative 0.01  0.0  switch  2.0 parabolic
k0           relative 0.01  0.0  switch  2.0 parabolic
k1           relative 0.01  0.0  switch  2.0 parabolic
k2           relative 0.01  0.0  switch  2.0 parabolic
et_mult      relative 0.01  0.0  switch  2.0 parabolic
* parameter data
fc           none relative   150.5303     50.000000  600.000000      fc              1.0000        0.0000      1
beta         none relative   1.376337     1.000000    6.000000       beta            1.0000        0.0000      1
perc         none relative   0.1968587    0.000100    0.500000       perc            1.0000        0.0000      1
uzl          none relative   7.272516     0.100000   75.000000       uzl             1.0000        0.0000      1
k0           none relative   0.4946375    0.050000    0.700000       k0              1.0000        0.0000      1
k1           none relative   0.1270905    0.010000    0.400000       k1              1.0000        0.0000      1
k2           none relative   0.007691	  0.000100    0.150000       k2              1.0000        0.0000      1
et_mult      none relative   1            0.100000    10.00000       et_mult         1.0000        0.0000      1
* observation groups
obsgroup
* observation data
obs1	1309.871287	1	obsgroup
obs2	1671.770833	1	obsgroup
obs3	1656.562500	1	obsgroup
obs4	1848.229167	1	obsgroup
obs5	3713.958333	1	obsgroup
obs6	3849.270833	1	obsgroup
obs7	3939.895833	1	obsgroup
obs8	3828.958333	1	obsgroup
obs9	3456.597938	1	obsgroup
obs10	2706.700000	1	obsgroup
obs11	2288.958333	1	obsgroup
obs12	2258.645833	1	obsgroup
obs13	2245.416667	1	obsgroup
obs14	2270.833333	1	obsgroup
obs15	2285.208333	1	obsgroup
obs16	1894.062500	1	obsgroup
obs17	1242.628866	1	obsgroup
obs18	808.916667	1	obsgroup
obs19	461.458333	1	obsgroup
obs20	790.406250	1	obsgroup
obs21	1480.416667	1	obsgroup
obs22	1454.166667	1	obsgroup
obs23	1104.845361	1	obsgroup
obs24	1104.270833	1	obsgroup
obs25	1107.812500	1	obsgroup
obs26	1108.645833	1	obsgroup
obs27	1115.208333	1	obsgroup
obs28	939.336634	1	obsgroup
obs29	736.375000	1	obsgroup
obs30	521.656250	1	obsgroup
obs31	402.989583	1	obsgroup
obs32	403.645833	1	obsgroup
obs33	408.333333	1	obsgroup
obs34	419.416667	1	obsgroup
obs35	423.427083	1	obsgroup
obs36	425.364583	1	obsgroup
obs37	427.572917	1	obsgroup
obs38	430.062500	1	obsgroup
obs39	420.364583	1	obsgroup
obs40	412.208333	1	obsgroup
obs41	414.302083	1	obsgroup
obs42	411.812500	1	obsgroup
obs43	406.562500	1	obsgroup
obs44	405.500000	1	obsgroup
obs45	405.020833	1	obsgroup
obs46	413.552083	1	obsgroup
obs47	412.145833	1	obsgroup
obs48	411.677083	1	obsgroup
obs49	409.791667	1	obsgroup
obs50	410.989583	1	obsgroup
obs51	413.125000	1	obsgroup
obs52	412.927083	1	obsgroup
obs53	411.906250	1	obsgroup
obs54	406.583333	1	obsgroup
obs55	405.666667	1	obsgroup
obs56	403.948454	1	obsgroup
obs57	406.302083	1	obsgroup
obs58	407.708333	1	obsgroup
obs59	408.625000	1	obsgroup
obs60	409.458333	1	obsgroup
obs61	409.291667	1	obsgroup
obs62	410.291667	1	obsgroup
obs63	407.385417	1	obsgroup
obs64	401.489583	1	obsgroup
obs65	414.197917	1	obsgroup
obs66	414.250000	1	obsgroup
obs67	415.406250	1	obsgroup
obs68	418.333333	1	obsgroup
obs69	418.750000	1	obsgroup
obs70	419.458333	1	obsgroup
obs71	421.208333	1	obsgroup
obs72	422.208333	1	obsgroup
obs73	421.652174	1	obsgroup
obs74	409.333333	1	obsgroup
obs75	410.833333	1	obsgroup
obs76	412.458333	1	obsgroup
obs77	413.000000	1	obsgroup
obs78	417.239583	1	obsgroup
obs79	408.864583	1	obsgroup
obs80	406.666667	1	obsgroup
obs81	407.958333	1	obsgroup
obs82	408.583333	1	obsgroup
obs83	408.958333	1	obsgroup
obs84	410.773196	1	obsgroup
obs85	411.833333	1	obsgroup
obs86	422.000000	1	obsgroup
obs87	422.208333	1	obsgroup
obs88	428.510417	1	obsgroup
obs89	423.864583	1	obsgroup
obs90	421.645833	1	obsgroup
obs91	447.010417	1	obsgroup
obs92	410.489583	1	obsgroup
obs93	404.812500	1	obsgroup
obs94	402.614583	1	obsgroup
obs95	402.250000	1	obsgroup
obs96	406.916667	1	obsgroup
obs97	402.062500	1	obsgroup
obs98	398.187500	1	obsgroup
obs99	406.291667	1	obsgroup
obs100	405.333333	1	obsgroup
obs101	402.346939	1	obsgroup
obs102	408.350515	1	obsgroup
obs103	412.854167	1	obsgroup
obs104	410.906250	1	obsgroup
obs105	410.750000	1	obsgroup
obs106	412.250000	1	obsgroup
obs107	414.781250	1	obsgroup
obs108	411.500000	1	obsgroup
obs109	406.937500	1	obsgroup
obs110	406.458333	1	obsgroup
obs111	394.635417	1	obsgroup
obs112	410.750000	1	obsgroup
obs113	412.322917	1	obsgroup
obs114	409.958333	1	obsgroup
obs115	404.687500	1	obsgroup
obs116	409.291667	1	obsgroup
obs117	411.468750	1	obsgroup
obs118	412.041667	1	obsgroup
obs119	417.104167	1	obsgroup
obs120	418.302083	1	obsgroup
obs121	404.281250	1	obsgroup
obs122	406.833333	1	obsgroup
obs123	405.791667	1	obsgroup
obs124	408.083333	1	obsgroup
obs125	408.708333	1	obsgroup
obs126	402.406250	1	obsgroup
obs127	405.958333	1	obsgroup
obs128	402.104167	1	obsgroup
obs129	401.781250	1	obsgroup
obs130	415.635417	1	obsgroup
obs131	422.208333	1	obsgroup
obs132	423.291667	1	obsgroup
obs133	420.645833	1	obsgroup
obs134	421.166667	1	obsgroup
obs135	420.333333	1	obsgroup
obs136	421.541667	1	obsgroup
obs137	419.739583	1	obsgroup
obs138	423.729167	1	obsgroup
obs139	586.731959	1	obsgroup
obs140	909.742268	1	obsgroup
obs141	1422.916667	1	obsgroup
obs142	1538.437500	1	obsgroup
obs143	1536.250000	1	obsgroup
obs144	1532.604167	1	obsgroup
obs145	1538.125000	1	obsgroup
obs146	1557.395833	1	obsgroup
obs147	1587.916667	1	obsgroup
obs148	1585.937500	1	obsgroup
obs149	1578.958333	1	obsgroup
obs150	1580.729167	1	obsgroup
obs151	1538.437500	1	obsgroup
obs152	2438.585859	1	obsgroup
obs153	5075.670103	1	obsgroup
obs154	5144.329897	1	obsgroup
obs155	4534.387755	1	obsgroup
obs156	4396.868687	1	obsgroup
obs157	4633.854167	1	obsgroup
obs158	4190.208333	1	obsgroup
obs159	4007.448980	1	obsgroup
obs160	3573.333333	1	obsgroup
obs161	3075.463918	1	obsgroup
obs162	3058.645833	1	obsgroup
obs163	2789.270833	1	obsgroup
obs164	2190.833333	1	obsgroup
obs165	1623.298969	1	obsgroup
obs166	1330.416667	1	obsgroup
obs167	1240.416667	1	obsgroup
obs168	1096.775510	1	obsgroup
obs169	988.468750	1	obsgroup
obs170	987.562500	1	obsgroup
obs171	988.020833	1	obsgroup
obs172	973.937500	1	obsgroup
obs173	849.755102	1	obsgroup
obs174	731.437500	1	obsgroup
obs175	732.781250	1	obsgroup
obs176	732.562500	1	obsgroup
obs177	714.281250	1	obsgroup
obs178	712.979167	1	obsgroup
obs179	712.770833	1	obsgroup
obs180	720.489583	1	obsgroup
obs181	724.427083	1	obsgroup
obs182	727.812500	1	obsgroup
obs183	724.541667	1	obsgroup
obs184	720.187500	1	obsgroup
obs185	721.239583	1	obsgroup
obs186	720.114583	1	obsgroup
obs187	729.979167	1	obsgroup
obs188	728.312500	1	obsgroup
obs189	693.030612	1	obsgroup
obs190	716.979167	1	obsgroup
obs191	710.416667	1	obsgroup
obs192	734.062500	1	obsgroup
obs193	694.346939	1	obsgroup
obs194	702.750000	1	obsgroup
obs195	707.697917	1	obsgroup
obs196	720.854167	1	obsgroup
obs197	842.948454	1	obsgroup
obs198	1118.333333	1	obsgroup
obs199	1303.333333	1	obsgroup
obs200	1449.081633	1	obsgroup
obs201	1501.041667	1	obsgroup
obs202	1496.041667	1	obsgroup
obs203	1491.145833	1	obsgroup
obs204	1523.125000	1	obsgroup
obs205	1549.270833	1	obsgroup
obs206	1535.520833	1	obsgroup
obs207	1537.812500	1	obsgroup
obs208	1537.083333	1	obsgroup
obs209	1558.541667	1	obsgroup
obs210	1555.937500	1	obsgroup
obs211	1551.770833	1	obsgroup
obs212	1542.500000	1	obsgroup
obs213	1546.875000	1	obsgroup
obs214	1859.700000	1	obsgroup
obs215	2284.639175	1	obsgroup
obs216	2338.645833	1	obsgroup
obs217	2326.041667	1	obsgroup
obs218	2317.708333	1	obsgroup
obs219	2309.895833	1	obsgroup
obs220	2307.604167	1	obsgroup
obs221	2334.270833	1	obsgroup
obs222	2327.604167	1	obsgroup
obs223	2318.762887	1	obsgroup
obs224	2317.395833	1	obsgroup
obs225	2301.979167	1	obsgroup
obs226	2325.000000	1	obsgroup
obs227	2330.833333	1	obsgroup
obs228	2317.187500	1	obsgroup
obs229	2066.699029	1	obsgroup
obs230	1597.058824	1	obsgroup
obs231	1596.262626	1	obsgroup
obs232	1614.791667	1	obsgroup
obs233	1639.183673	1	obsgroup
obs234	1665.208333	1	obsgroup
obs235	1662.604167	1	obsgroup
obs236	1661.250000	1	obsgroup
obs237	1650.208333	1	obsgroup
obs238	1649.375000	1	obsgroup
obs239	1650.312500	1	obsgroup
obs240	1655.729167	1	obsgroup
obs241	1662.604167	1	obsgroup
obs242	1675.625000	1	obsgroup
obs243	1674.375000	1	obsgroup
obs244	1669.062500	1	obsgroup
obs245	1698.125000	1	obsgroup
obs246	1462.330097	1	obsgroup
obs247	1062.752577	1	obsgroup
obs248	750.562500	1	obsgroup
obs249	616.020833	1	obsgroup
obs250	622.104167	1	obsgroup
obs251	626.364583	1	obsgroup
obs252	629.822917	1	obsgroup
obs253	634.166667	1	obsgroup
obs254	632.218750	1	obsgroup
obs255	628.416667	1	obsgroup
obs256	628.635417	1	obsgroup
obs257	618.583333	1	obsgroup
obs258	621.187500	1	obsgroup
obs259	631.218750	1	obsgroup
obs260	632.770833	1	obsgroup
obs261	631.229167	1	obsgroup
obs262	633.447917	1	obsgroup
obs263	641.135417	1	obsgroup
obs264	647.218750	1	obsgroup
obs265	645.500000	1	obsgroup
obs266	644.750000	1	obsgroup
obs267	644.812500	1	obsgroup
obs268	637.340000	1	obsgroup
obs269	617.843750	1	obsgroup
obs270	498.010101	1	obsgroup
obs271	433.500000	1	obsgroup
obs272	434.260417	1	obsgroup
obs273	435.656250	1	obsgroup
obs274	431.577320	1	obsgroup
obs275	430.958333	1	obsgroup
obs276	432.052083	1	obsgroup
obs277	437.020833	1	obsgroup
obs278	438.885417	1	obsgroup
obs279	439.916667	1	obsgroup
obs280	438.750000	1	obsgroup
obs281	434.968750	1	obsgroup
obs282	432.260417	1	obsgroup
obs283	432.052083	1	obsgroup
obs284	437.958333	1	obsgroup
obs285	776.098039	1	obsgroup
obs286	865.145833	1	obsgroup
obs287	862.885417	1	obsgroup
obs288	860.843750	1	obsgroup
obs289	858.156250	1	obsgroup
obs290	856.260417	1	obsgroup
obs291	857.864583	1	obsgroup
obs292	855.927083	1	obsgroup
obs293	854.562500	1	obsgroup
obs294	851.500000	1	obsgroup
obs295	849.572917	1	obsgroup
obs296	846.614583	1	obsgroup
obs297	853.156250	1	obsgroup
obs298	855.000000	1	obsgroup
obs299	862.666667	1	obsgroup
obs300	859.979167	1	obsgroup
obs301	859.177083	1	obsgroup
obs302	856.760417	1	obsgroup
obs303	852.947917	1	obsgroup
obs304	851.520833	1	obsgroup
obs305	850.177083	1	obsgroup
obs306	853.500000	1	obsgroup
obs307	860.989583	1	obsgroup
obs308	898.489583	1	obsgroup
obs309	915.968750	1	obsgroup
obs310	912.322917	1	obsgroup
obs311	917.541667	1	obsgroup
obs312	893.677083	1	obsgroup
obs313	897.135417	1	obsgroup
obs314	904.489583	1	obsgroup
obs315	906.489583	1	obsgroup
obs316	905.979167	1	obsgroup
obs317	906.416667	1	obsgroup
obs318	903.572917	1	obsgroup
obs319	915.843750	1	obsgroup
obs320	1526.854167	1	obsgroup
obs321	1778.229167	1	obsgroup
obs322	1782.500000	1	obsgroup
obs323	1773.645833	1	obsgroup
obs324	1770.104167	1	obsgroup
obs325	1758.958333	1	obsgroup
obs326	1761.770833	1	obsgroup
obs327	1737.708333	1	obsgroup
obs328	1704.166667	1	obsgroup
obs329	1706.250000	1	obsgroup
obs330	1713.854167	1	obsgroup
obs331	1730.520833	1	obsgroup
obs332	1725.937500	1	obsgroup
obs333	1713.437500	1	obsgroup
obs334	2102.500000	1	obsgroup
obs335	2965.208333	1	obsgroup
obs336	2967.083333	1	obsgroup
obs337	2952.291667	1	obsgroup
obs338	2910.000000	1	obsgroup
obs339	2861.979167	1	obsgroup
obs340	2816.875000	1	obsgroup
obs341	2770.000000	1	obsgroup
obs342	2562.395833	1	obsgroup
obs343	2471.250000	1	obsgroup
obs344	2305.729167	1	obsgroup
obs345	1633.229167	1	obsgroup
obs346	1630.625000	1	obsgroup
obs347	1637.500000	1	obsgroup
obs348	1656.875000	1	obsgroup
obs349	1756.770833	1	obsgroup
obs350	2916.250000	1	obsgroup
obs351	4851.145833	1	obsgroup
obs352	4985.937500	1	obsgroup
obs353	4928.958333	1	obsgroup
obs354	4859.270833	1	obsgroup
obs355	4796.979167	1	obsgroup
obs356	4077.604167	1	obsgroup
obs357	2677.708333	1	obsgroup
obs358	1704.375000	1	obsgroup
obs359	1415.000000	1	obsgroup
obs360	1403.125000	1	obsgroup
obs361	1405.729167	1	obsgroup
obs362	1687.812500	1	obsgroup
obs363	1839.427083	1	obsgroup
obs364	2243.541667	1	obsgroup
obs365	2492.916667	1	obsgroup
obs366	2475.625000	1	obsgroup
obs367	2456.875000	1	obsgroup
obs368	2115.312500	1	obsgroup
obs369	1748.750000	1	obsgroup
obs370	1753.020833	1	obsgroup
obs371	1529.510417	1	obsgroup
obs372	801.927083	1	obsgroup
obs373	592.885417	1	obsgroup
obs374	594.250000	1	obsgroup
obs375	1354.760417	1	obsgroup
obs376	1848.229167	1	obsgroup
obs377	1824.375000	1	obsgroup
obs378	1823.750000	1	obsgroup
obs379	1797.187500	1	obsgroup
obs380	1798.020833	1	obsgroup
obs381	1865.104167	1	obsgroup
obs382	1897.291667	1	obsgroup
obs383	1856.770833	1	obsgroup
obs384	2390.208333	1	obsgroup
obs385	3519.583333	1	obsgroup
obs386	4052.916667	1	obsgroup
obs387	3997.291667	1	obsgroup
obs388	3932.604167	1	obsgroup
obs389	3937.291667	1	obsgroup
obs390	3870.312500	1	obsgroup
obs391	3025.000000	1	obsgroup
obs392	2468.541667	1	obsgroup
obs393	1963.750000	1	obsgroup
obs394	1586.562500	1	obsgroup
obs395	1582.812500	1	obsgroup
obs396	1576.041667	1	obsgroup
obs397	1225.864583	1	obsgroup
obs398	900.145833	1	obsgroup
obs399	890.500000	1	obsgroup
obs400	715.822917	1	obsgroup
obs401	499.500000	1	obsgroup
obs402	499.239583	1	obsgroup
obs403	432.583333	1	obsgroup
obs404	379.104167	1	obsgroup
obs405	377.979167	1	obsgroup
obs406	382.510417	1	obsgroup
obs407	383.750000	1	obsgroup
obs408	381.947917	1	obsgroup
obs409	379.281250	1	obsgroup
obs410	382.208333	1	obsgroup
obs411	409.802083	1	obsgroup
obs412	385.958333	1	obsgroup
obs413	388.041667	1	obsgroup
obs414	389.666667	1	obsgroup
obs415	389.000000	1	obsgroup
obs416	391.520833	1	obsgroup
obs417	389.208333	1	obsgroup
obs418	391.447917	1	obsgroup
obs419	393.104167	1	obsgroup
obs420	398.979167	1	obsgroup
obs421	401.604167	1	obsgroup
obs422	400.177083	1	obsgroup
obs423	399.572917	1	obsgroup
obs424	401.708333	1	obsgroup
obs425	403.552083	1	obsgroup
obs426	409.375000	1	obsgroup
obs427	434.854167	1	obsgroup
obs428	425.885417	1	obsgroup
obs429	437.635417	1	obsgroup
obs430	437.562500	1	obsgroup
obs431	440.281250	1	obsgroup
obs432	442.062500	1	obsgroup
obs433	443.687500	1	obsgroup
obs434	466.072917	1	obsgroup
obs435	468.322917	1	obsgroup
obs436	463.041667	1	obsgroup
obs437	460.184783	1	obsgroup
obs438	513.916667	1	obsgroup
obs439	525.885417	1	obsgroup
obs440	496.635417	1	obsgroup
obs441	642.343750	1	obsgroup
obs442	1288.479167	1	obsgroup
obs443	1563.020833	1	obsgroup
obs444	1551.354167	1	obsgroup
obs445	1166.614583	1	obsgroup
obs446	768.572917	1	obsgroup
obs447	791.885417	1	obsgroup
obs448	791.531250	1	obsgroup
obs449	790.906250	1	obsgroup
obs450	794.708333	1	obsgroup
obs451	798.843750	1	obsgroup
obs452	803.270833	1	obsgroup
obs453	803.479167	1	obsgroup
obs454	811.375000	1	obsgroup
obs455	811.114583	1	obsgroup
obs456	809.885417	1	obsgroup
obs457	818.531250	1	obsgroup
obs458	777.416667	1	obsgroup
obs459	785.614583	1	obsgroup
obs460	780.958333	1	obsgroup
obs461	773.854167	1	obsgroup
obs462	754.177083	1	obsgroup
obs463	1005.791667	1	obsgroup
obs464	1549.166667	1	obsgroup
obs465	1546.458333	1	obsgroup
obs466	1784.687500	1	obsgroup
obs467	2330.625000	1	obsgroup
obs468	2326.562500	1	obsgroup
obs469	2338.958333	1	obsgroup
obs470	2354.270833	1	obsgroup
obs471	2563.229167	1	obsgroup
obs472	3582.604167	1	obsgroup
obs473	3582.604167	1	obsgroup
obs474	2901.875000	1	obsgroup
obs475	2370.104167	1	obsgroup
obs476	1775.208333	1	obsgroup
obs477	1579.687500	1	obsgroup
obs478	1581.875000	1	obsgroup
obs479	1574.375000	1	obsgroup
obs480	1562.812500	1	obsgroup
obs481	1563.541667	1	obsgroup
obs482	1565.833333	1	obsgroup
obs483	1543.958333	1	obsgroup
obs484	1177.489583	1	obsgroup
obs485	1015.937500	1	obsgroup
obs486	1019.166667	1	obsgroup
obs487	1005.364583	1	obsgroup
obs488	1005.156250	1	obsgroup
obs489	1006.000000	1	obsgroup
obs490	1007.916667	1	obsgroup
obs491	1015.625000	1	obsgroup
obs492	1019.895833	1	obsgroup
obs493	1020.125000	1	obsgroup
obs494	995.291667	1	obsgroup
obs495	1383.875000	1	obsgroup
obs496	1533.020833	1	obsgroup
obs497	1724.270833	1	obsgroup
obs498	2125.520833	1	obsgroup
obs499	2482.291667	1	obsgroup
obs500	2512.083333	1	obsgroup
obs501	2333.645833	1	obsgroup
obs502	1716.875000	1	obsgroup
obs503	1473.125000	1	obsgroup
obs504	1471.145833	1	obsgroup
obs505	1490.312500	1	obsgroup
obs506	1574.479167	1	obsgroup
obs507	1976.666667	1	obsgroup
obs508	2143.541667	1	obsgroup
obs509	2519.270833	1	obsgroup
obs510	2531.250000	1	obsgroup
obs511	2490.000000	1	obsgroup
obs512	2497.604167	1	obsgroup
obs513	2542.291667	1	obsgroup
obs514	2529.062500	1	obsgroup
obs515	2529.166667	1	obsgroup
obs516	2432.916667	1	obsgroup
obs517	2450.000000	1	obsgroup
obs518	2450.625000	1	obsgroup
obs519	2221.979167	1	obsgroup
obs520	2147.083333	1	obsgroup
obs521	2170.416667	1	obsgroup
obs522	1944.687500	1	obsgroup
obs523	1223.125000	1	obsgroup
obs524	1494.062500	1	obsgroup
obs525	1988.437500	1	obsgroup
obs526	2328.645833	1	obsgroup
obs527	2330.000000	1	obsgroup
obs528	2329.687500	1	obsgroup
obs529	2323.125000	1	obsgroup
obs530	2364.062500	1	obsgroup
obs531	2276.979167	1	obsgroup
obs532	2248.958333	1	obsgroup
obs533	2083.645833	1	obsgroup
obs534	1847.395833	1	obsgroup
obs535	1619.791667	1	obsgroup
obs536	1730.833333	1	obsgroup
obs537	1775.312500	1	obsgroup
obs538	1844.583333	1	obsgroup
obs539	1979.062500	1	obsgroup
obs540	1931.458333	1	obsgroup
obs541	1948.020833	1	obsgroup
obs542	1966.250000	1	obsgroup
obs543	1816.979167	1	obsgroup
obs544	1565.416667	1	obsgroup
obs545	1551.458333	1	obsgroup
obs546	1532.083333	1	obsgroup
obs547	1227.989583	1	obsgroup
obs548	966.218750	1	obsgroup
obs549	1070.958333	1	obsgroup
obs550	1163.854167	1	obsgroup
obs551	1198.437500	1	obsgroup
obs552	1201.416667	1	obsgroup
obs553	1049.989583	1	obsgroup
obs554	1007.937500	1	obsgroup
obs555	1030.708333	1	obsgroup
obs556	1026.812500	1	obsgroup
obs557	1045.531250	1	obsgroup
obs558	988.291667	1	obsgroup
obs559	992.052083	1	obsgroup
obs560	956.479167	1	obsgroup
obs561	963.687500	1	obsgroup
obs562	953.291667	1	obsgroup
obs563	958.864583	1	obsgroup
obs564	982.572917	1	obsgroup
obs565	991.718750	1	obsgroup
obs566	986.656250	1	obsgroup
obs567	987.239583	1	obsgroup
obs568	986.760417	1	obsgroup
obs569	983.718750	1	obsgroup
obs570	978.854167	1	obsgroup
obs571	977.125000	1	obsgroup
obs572	979.864583	1	obsgroup
obs573	982.645833	1	obsgroup
obs574	984.791667	1	obsgroup
obs575	982.166667	1	obsgroup
obs576	978.822917	1	obsgroup
obs577	977.239583	1	obsgroup
obs578	974.052083	1	obsgroup
obs579	977.291667	1	obsgroup
obs580	975.583333	1	obsgroup
obs581	973.947917	1	obsgroup
obs582	972.406250	1	obsgroup
obs583	975.281250	1	obsgroup
obs584	976.593750	1	obsgroup
obs585	968.656250	1	obsgroup
obs586	974.541667	1	obsgroup
obs587	961.739583	1	obsgroup
obs588	1009.208333	1	obsgroup
obs589	1019.416667	1	obsgroup
obs590	994.791667	1	obsgroup
obs591	976.354167	1	obsgroup
obs592	985.114583	1	obsgroup
obs593	994.187500	1	obsgroup
obs594	1012.604167	1	obsgroup
obs595	1022.343750	1	obsgroup
obs596	1024.270833	1	obsgroup
obs597	1014.791667	1	obsgroup
obs598	1004.781250	1	obsgroup
obs599	995.739583	1	obsgroup
obs600	1002.135417	1	obsgroup
obs601	1010.020833	1	obsgroup
obs602	1010.114583	1	obsgroup
obs603	1009.072917	1	obsgroup
obs604	1001.656250	1	obsgroup
obs605	1004.750000	1	obsgroup
obs606	1009.135417	1	obsgroup
obs607	1012.968750	1	obsgroup
obs608	1015.802083	1	obsgroup
obs609	1019.031250	1	obsgroup
obs610	1016.677083	1	obsgroup
obs611	1013.937500	1	obsgroup
obs612	1009.656250	1	obsgroup
obs613	1029.875000	1	obsgroup
obs614	1023.531250	1	obsgroup
obs615	1035.677083	1	obsgroup
obs616	1057.552083	1	obsgroup
obs617	1059.791667	1	obsgroup
obs618	1056.666667	1	obsgroup
obs619	1052.604167	1	obsgroup
obs620	1055.520833	1	obsgroup
obs621	1062.812500	1	obsgroup
obs622	1063.020833	1	obsgroup
obs623	1072.187500	1	obsgroup
obs624	1075.000000	1	obsgroup
obs625	1085.104167	1	obsgroup
obs626	1076.875000	1	obsgroup
obs627	1078.750000	1	obsgroup
obs628	1121.979167	1	obsgroup
obs629	1115.833333	1	obsgroup
obs630	1117.083333	1	obsgroup
obs631	1109.166667	1	obsgroup
obs632	1103.020833	1	obsgroup
obs633	1107.083333	1	obsgroup
obs634	1115.000000	1	obsgroup
obs635	1113.437500	1	obsgroup
obs636	1106.562500	1	obsgroup
obs637	1100.937500	1	obsgroup
obs638	1400.625000	1	obsgroup
obs639	1508.229167	1	obsgroup
obs640	1505.520833	1	obsgroup
obs641	1513.958333	1	obsgroup
obs642	1510.000000	1	obsgroup
obs643	1530.937500	1	obsgroup
obs644	1545.208333	1	obsgroup
obs645	1544.583333	1	obsgroup
obs646	1537.083333	1	obsgroup
obs647	1567.187500	1	obsgroup
obs648	1561.562500	1	obsgroup
obs649	1552.500000	1	obsgroup
obs650	1548.958333	1	obsgroup
obs651	1549.270833	1	obsgroup
obs652	1552.083333	1	obsgroup
obs653	1584.375000	1	obsgroup
obs654	1581.250000	1	obsgroup
obs655	1581.562500	1	obsgroup
obs656	1577.812500	1	obsgroup
obs657	1575.208333	1	obsgroup
obs658	1575.208333	1	obsgroup
obs659	1569.479167	1	obsgroup
obs660	1567.500000	1	obsgroup
obs661	1559.375000	1	obsgroup
obs662	1559.375000	1	obsgroup
obs663	1564.583333	1	obsgroup
obs664	1555.520833	1	obsgroup
obs665	1528.229167	1	obsgroup
obs666	1518.750000	1	obsgroup
obs667	1573.020833	1	obsgroup
obs668	1637.708333	1	obsgroup
obs669	1632.187500	1	obsgroup
obs670	1628.645833	1	obsgroup
obs671	1638.333333	1	obsgroup
obs672	1667.916667	1	obsgroup
obs673	1665.937500	1	obsgroup
obs674	1670.833333	1	obsgroup
obs675	1663.900000	1	obsgroup
obs676	1660.104167	1	obsgroup
obs677	1654.062500	1	obsgroup
obs678	1652.604167	1	obsgroup
obs679	1646.875000	1	obsgroup
obs680	1466.770833	1	obsgroup
obs681	1351.145833	1	obsgroup
obs682	1341.562500	1	obsgroup
obs683	1342.916667	1	obsgroup
obs684	1336.413043	1	obsgroup
obs685	1063.333333	1	obsgroup
obs686	725.718750	1	obsgroup
obs687	1395.781250	1	obsgroup
obs688	874.968750	1	obsgroup
obs689	789.125000	1	obsgroup
obs690	1317.781250	1	obsgroup
obs691	1807.708333	1	obsgroup
obs692	1799.687500	1	obsgroup
obs693	1798.854167	1	obsgroup
obs694	1793.750000	1	obsgroup
obs695	1692.812500	1	obsgroup
obs696	1527.604167	1	obsgroup
obs697	1395.104167	1	obsgroup
obs698	1113.906250	1	obsgroup
obs699	718.395833	1	obsgroup
obs700	574.145833	1	obsgroup
obs701	573.010417	1	obsgroup
obs702	540.937500	1	obsgroup
obs703	520.114583	1	obsgroup
obs704	519.645833	1	obsgroup
obs705	403.968750	1	obsgroup
obs706	402.666667	1	obsgroup
obs707	404.593750	1	obsgroup
obs708	405.427083	1	obsgroup
obs709	406.166667	1	obsgroup
obs710	408.166667	1	obsgroup
obs711	409.822917	1	obsgroup
obs712	407.541667	1	obsgroup
obs713	409.968750	1	obsgroup
obs714	410.041667	1	obsgroup
obs715	410.520833	1	obsgroup
obs716	410.416667	1	obsgroup
obs717	411.843750	1	obsgroup
obs718	412.552083	1	obsgroup
obs719	411.166667	1	obsgroup
obs720	411.177083	1	obsgroup
obs721	411.125000	1	obsgroup
obs722	411.010417	1	obsgroup
obs723	414.166667	1	obsgroup
obs724	411.875000	1	obsgroup
obs725	411.000000	1	obsgroup
obs726	411.385417	1	obsgroup
obs727	414.843750	1	obsgroup
obs728	417.062500	1	obsgroup
obs729	432.812500	1	obsgroup
obs730	1355.416667	1	obsgroup
obs731	1864.062500	1	obsgroup
obs732	1792.916667	1	obsgroup
obs733	1775.000000	1	obsgroup
obs734	1789.687500	1	obsgroup
obs735	1630.416667	1	obsgroup
obs736	1184.895833	1	obsgroup
obs737	1041.145833	1	obsgroup
obs738	984.552083	1	obsgroup
obs739	960.968750	1	obsgroup
obs740	851.739583	1	obsgroup
obs741	844.500000	1	obsgroup
obs742	844.416667	1	obsgroup
obs743	838.322917	1	obsgroup
obs744	833.187500	1	obsgroup
obs745	832.020833	1	obsgroup
obs746	830.927083	1	obsgroup
obs747	831.593750	1	obsgroup
obs748	856.802083	1	obsgroup
obs749	934.531250	1	obsgroup
obs750	926.510417	1	obsgroup
obs751	3618.114583	1	obsgroup
obs752	5979.895833	1	obsgroup
obs753	5928.958333	1	obsgroup
obs754	5774.583333	1	obsgroup
obs755	5691.458333	1	obsgroup
obs756	5650.416667	1	obsgroup
obs757	5593.541667	1	obsgroup
obs758	5562.083333	1	obsgroup
obs759	5480.833333	1	obsgroup
obs760	4672.500000	1	obsgroup
obs761	2955.937500	1	obsgroup
obs762	1878.125000	1	obsgroup
obs763	1550.937500	1	obsgroup
obs764	1301.250000	1	obsgroup
obs765	866.802083	1	obsgroup
obs766	734.000000	1	obsgroup
obs767	691.625000	1	obsgroup
obs768	518.041667	1	obsgroup
obs769	490.989583	1	obsgroup
obs770	510.614583	1	obsgroup
obs771	453.239583	1	obsgroup
obs772	457.552083	1	obsgroup
obs773	457.468750	1	obsgroup
obs774	451.885417	1	obsgroup
obs775	437.833333	1	obsgroup
obs776	439.156250	1	obsgroup
obs777	442.468750	1	obsgroup
obs778	443.947917	1	obsgroup
obs779	446.375000	1	obsgroup
obs780	448.729167	1	obsgroup
obs781	453.739583	1	obsgroup
obs782	459.385417	1	obsgroup
obs783	466.708333	1	obsgroup
obs784	473.864583	1	obsgroup
obs785	477.312500	1	obsgroup
obs786	481.375000	1	obsgroup
obs787	484.895833	1	obsgroup
obs788	474.052083	1	obsgroup
obs789	511.979167	1	obsgroup
obs790	503.947917	1	obsgroup
obs791	466.666667	1	obsgroup
obs792	471.968750	1	obsgroup
obs793	471.208333	1	obsgroup
obs794	469.958333	1	obsgroup
obs795	476.197917	1	obsgroup
obs796	481.343750	1	obsgroup
obs797	477.927083	1	obsgroup
obs798	477.494505	1	obsgroup
obs799	487.115789	1	obsgroup
obs800	490.802083	1	obsgroup
obs801	494.586957	1	obsgroup
obs802	498.333333	1	obsgroup
obs803	1152.750000	1	obsgroup
obs804	1475.468750	1	obsgroup
obs805	714.000000	1	obsgroup
obs806	475.239583	1	obsgroup
obs807	453.604167	1	obsgroup
obs808	452.697917	1	obsgroup
obs809	455.083333	1	obsgroup
obs810	1413.593750	1	obsgroup
obs811	1693.333333	1	obsgroup
obs812	1667.471264	1	obsgroup
obs813	1588.645833	1	obsgroup
obs814	1563.437500	1	obsgroup
obs815	1555.833333	1	obsgroup
obs816	2195.625000	1	obsgroup
obs817	4049.270833	1	obsgroup
obs818	4046.145833	1	obsgroup
obs819	4031.770833	1	obsgroup
obs820	4348.437500	1	obsgroup
obs821	5045.000000	1	obsgroup
obs822	5056.875000	1	obsgroup
obs823	5020.625000	1	obsgroup
obs824	4992.083333	1	obsgroup
obs825	4960.416667	1	obsgroup
obs826	4553.437500	1	obsgroup
obs827	3463.020833	1	obsgroup
obs828	2627.708333	1	obsgroup
obs829	2108.125000	1	obsgroup
obs830	1655.520833	1	obsgroup
obs831	1299.062500	1	obsgroup
obs832	981.916667	1	obsgroup
obs833	800.770833	1	obsgroup
obs834	802.583333	1	obsgroup
obs835	799.572917	1	obsgroup
obs836	790.177083	1	obsgroup
obs837	1141.500000	1	obsgroup
obs838	1562.604167	1	obsgroup
obs839	1538.437500	1	obsgroup
obs840	1543.020833	1	obsgroup
obs841	1533.125000	1	obsgroup
obs842	1580.000000	1	obsgroup
obs843	1558.750000	1	obsgroup
obs844	1558.020833	1	obsgroup
obs845	3025.416667	1	obsgroup
obs846	4991.979167	1	obsgroup
obs847	4425.416667	1	obsgroup
obs848	3112.500000	1	obsgroup
obs849	2082.812500	1	obsgroup
obs850	1362.083333	1	obsgroup
obs851	1814.270833	1	obsgroup
obs852	2229.791667	1	obsgroup
obs853	2230.104167	1	obsgroup
obs854	2238.750000	1	obsgroup
obs855	2111.354167	1	obsgroup
obs856	1823.958333	1	obsgroup
obs857	1531.458333	1	obsgroup
obs858	1280.104167	1	obsgroup
obs859	1167.916667	1	obsgroup
obs860	1170.000000	1	obsgroup
obs861	1191.666667	1	obsgroup
obs862	1215.520833	1	obsgroup
obs863	1199.791667	1	obsgroup
obs864	1187.812500	1	obsgroup
obs865	1450.625000	1	obsgroup
obs866	2051.354167	1	obsgroup
obs867	2041.875000	1	obsgroup
obs868	1980.208333	1	obsgroup
obs869	1515.729167	1	obsgroup
obs870	1377.187500	1	obsgroup
obs871	1301.666667	1	obsgroup
obs872	1343.020833	1	obsgroup
obs873	1568.958333	1	obsgroup
obs874	1590.000000	1	obsgroup
obs875	1657.291667	1	obsgroup
obs876	1881.914894	1	obsgroup
obs877	1776.770833	1	obsgroup
obs878	1667.604167	1	obsgroup
obs879	1349.479167	1	obsgroup
obs880	1289.479167	1	obsgroup
obs881	1265.416667	1	obsgroup
obs882	1225.145833	1	obsgroup
obs883	1375.104167	1	obsgroup
obs884	1477.083333	1	obsgroup
obs885	1580.000000	1	obsgroup
obs886	1765.937500	1	obsgroup
obs887	2040.000000	1	obsgroup
obs888	2039.166667	1	obsgroup
obs889	2037.083333	1	obsgroup
obs890	1730.416667	1	obsgroup
obs891	1470.000000	1	obsgroup
obs892	1470.000000	1	obsgroup
obs893	1470.000000	1	obsgroup
obs894	1323.750000	1	obsgroup
obs895	1250.833333	1	obsgroup
obs896	1240.000000	1	obsgroup
obs897	1081.875000	1	obsgroup
obs898	1010.000000	1	obsgroup
obs899	1010.000000	1	obsgroup
obs900	1010.000000	1	obsgroup
obs901	1010.000000	1	obsgroup
obs902	977.135417	1	obsgroup
obs903	827.270833	1	obsgroup
obs904	809.083333	1	obsgroup
obs905	931.385417	1	obsgroup
obs906	1201.770833	1	obsgroup
obs907	969.864583	1	obsgroup
obs908	1134.687500	1	obsgroup
obs909	1140.000000	1	obsgroup
obs910	998.843750	1	obsgroup
obs911	837.708333	1	obsgroup
obs912	870.437500	1	obsgroup
obs913	936.364583	1	obsgroup
obs914	936.947917	1	obsgroup
obs915	850.562500	1	obsgroup
obs916	822.562500	1	obsgroup
obs917	751.135417	1	obsgroup
obs918	679.104167	1	obsgroup
obs919	662.677083	1	obsgroup
obs920	663.041667	1	obsgroup
obs921	664.187500	1	obsgroup
obs922	666.052083	1	obsgroup
obs923	624.500000	1	obsgroup
obs924	565.562500	1	obsgroup
obs925	564.885417	1	obsgroup
obs926	565.979167	1	obsgroup
obs927	570.812500	1	obsgroup
obs928	544.177083	1	obsgroup
obs929	514.625000	1	obsgroup
obs930	511.697917	1	obsgroup