pcf
* control data
restart  estimation
    8  3287     8     0     1
    1     1 single point   1   0   0
  5.0   2.0   0.3  0.03    10  999  lamforgive  derforgive
  3.0   3.0 0.001  0
  0.1
   30  0.01     3     3  0.01     3
    1     1     1     1
* parameter groups
fc           relative 0.01  0.0  switch  2.0 parabolic
beta         relative 0.01  0.0  switch  2.0 parabolic
perc         relative 0.01  0.0  switch  2.0 parabolic
uzl          relative 0.01  0.0  switch  2.0 parabolic
k0           relative 0.01  0.0  switch  2.0 parabolic
k1           relative 0.01  0.0  switch  2.0 parabolic
k2           relative 0.01  0.0  switch  2.0 parabolic
et_mult      relative 0.01  0.0  switch  2.0 parabolic
* parameter data
fc           none relative   200.525      50.000000  600.000000      fc              1.0000        0.0000      1
beta         none relative   1.3476       1.000000    6.000000       beta            1.0000        0.0000      1
perc         none relative   0.1769       0.000100    0.500000       perc            1.0000        0.0000      1
uzl          none relative   0.9571       0.100000   75.000000       uzl             1.0000        0.0000      1
k0           none relative   0.5482       0.050000    0.700000       k0              1.0000        0.0000      1
k1           none relative   0.2506       0.010000    0.400000       k1              1.0000        0.0000      1
k2           none relative   0.0622	  0.000100    0.150000       k2              1.0000        0.0000      1
et_mult      none relative   1            0.100000    10.00000       et_mult         1.0000        0.0000      1
* observation groups
obsgroup
* observation data
obs1	1117.989583	1	obsgroup
obs2	1241.041667	1	obsgroup
obs3	1319.062500	1	obsgroup
obs4	1840.208333	1	obsgroup
obs5	1820.000000	1	obsgroup
obs6	2000.104167	1	obsgroup
obs7	2158.125000	1	obsgroup
obs8	2086.562500	1	obsgroup
obs9	1730.729167	1	obsgroup
obs10	1116.145833	1	obsgroup
obs11	757.510417	1	obsgroup
obs12	572.614583	1	obsgroup
obs13	409.364583	1	obsgroup
obs14	378.000000	1	obsgroup
obs15	378.875000	1	obsgroup
obs16	472.895833	1	obsgroup
obs17	711.239583	1	obsgroup
obs18	774.062500	1	obsgroup
obs19	767.458333	1	obsgroup
obs20	664.302083	1	obsgroup
obs21	403.416667	1	obsgroup
obs22	236.739583	1	obsgroup
obs23	156.750000	1	obsgroup
obs24	121.041667	1	obsgroup
obs25	125.437500	1	obsgroup
obs26	129.333333	1	obsgroup
obs27	131.218750	1	obsgroup
obs28	134.000000	1	obsgroup
obs29	136.000000	1	obsgroup
obs30	138.437500	1	obsgroup
obs31	140.000000	1	obsgroup
obs32	141.895833	1	obsgroup
obs33	142.000000	1	obsgroup
obs34	100.297917	1	obsgroup
obs35	57.431250	1	obsgroup
obs36	53.103125	1	obsgroup
obs37	53.337500	1	obsgroup
obs38	53.527083	1	obsgroup
obs39	53.400000	1	obsgroup
obs40	53.353125	1	obsgroup
obs41	53.400000	1	obsgroup
obs42	53.431250	1	obsgroup
obs43	55.670833	1	obsgroup
obs44	57.806593	1	obsgroup
obs45	58.533333	1	obsgroup
obs46	58.391111	1	obsgroup
obs47	0.000000	0	obsgroup
obs48	0.000000	0	obsgroup
obs49	59.600000	1	obsgroup
obs50	59.736458	1	obsgroup
obs51	58.194792	1	obsgroup
obs52	57.833333	1	obsgroup
obs53	57.850000	1	obsgroup
obs54	58.583333	1	obsgroup
obs55	60.192708	1	obsgroup
obs56	61.429213	1	obsgroup
obs57	61.979167	1	obsgroup
obs58	0.000000	0	obsgroup
obs59	0.000000	0	obsgroup
obs60	0.000000	0	obsgroup
obs61	0.000000	0	obsgroup
obs62	0.000000	0	obsgroup
obs63	63.666667	1	obsgroup
obs64	62.983333	1	obsgroup
obs65	63.016667	1	obsgroup
obs66	63.523958	1	obsgroup
obs67	64.500000	1	obsgroup
obs68	64.483333	1	obsgroup
obs69	64.500000	1	obsgroup
obs70	64.535417	1	obsgroup
obs71	67.457292	1	obsgroup
obs72	63.466667	1	obsgroup
obs73	62.881522	1	obsgroup
obs74	62.882292	1	obsgroup
obs75	63.742708	1	obsgroup
obs76	61.288542	1	obsgroup
obs77	61.692708	1	obsgroup
obs78	61.200000	1	obsgroup
obs79	61.217708	1	obsgroup
obs80	62.156250	1	obsgroup
obs81	62.722917	1	obsgroup
obs82	61.713542	1	obsgroup
obs83	62.258333	1	obsgroup
obs84	63.650000	1	obsgroup
obs85	64.817708	1	obsgroup
obs86	65.527083	1	obsgroup
obs87	65.850000	1	obsgroup
obs88	86.119792	1	obsgroup
obs89	88.815625	1	obsgroup
obs90	81.694792	1	obsgroup
obs91	85.308333	1	obsgroup
obs92	90.838542	1	obsgroup
obs93	85.317708	1	obsgroup
obs94	82.125000	1	obsgroup
obs95	82.250000	1	obsgroup
obs96	70.358333	1	obsgroup
obs97	76.204167	1	obsgroup
obs98	80.082292	1	obsgroup
obs99	81.020833	1	obsgroup
obs100	81.229167	1	obsgroup
obs101	86.452083	1	obsgroup
obs102	84.562500	1	obsgroup
obs103	83.062500	1	obsgroup
obs104	83.416667	1	obsgroup
obs105	84.062500	1	obsgroup
obs106	83.000000	1	obsgroup
obs107	83.000000	1	obsgroup
obs108	82.979167	1	obsgroup
obs109	82.937500	1	obsgroup
obs110	84.020833	1	obsgroup
obs111	90.170833	1	obsgroup
obs112	82.520833	1	obsgroup
obs113	81.291667	1	obsgroup
obs114	81.145833	1	obsgroup
obs115	81.104167	1	obsgroup
obs116	81.354167	1	obsgroup
obs117	276.677083	1	obsgroup
obs118	566.885417	1	obsgroup
obs119	1548.020833	1	obsgroup
obs120	1626.770833	1	obsgroup
obs121	1625.416667	1	obsgroup
obs122	1567.187500	1	obsgroup
obs123	1315.729167	1	obsgroup
obs124	1169.791667	1	obsgroup
obs125	1048.270833	1	obsgroup
obs126	723.000000	1	obsgroup
obs127	545.177083	1	obsgroup
obs128	522.177083	1	obsgroup
obs129	425.854167	1	obsgroup
obs130	386.625000	1	obsgroup
obs131	387.864583	1	obsgroup
obs132	604.968750	1	obsgroup
obs133	618.583333	1	obsgroup
obs134	562.395833	1	obsgroup
obs135	407.791667	1	obsgroup
obs136	308.020833	1	obsgroup
obs137	240.958333	1	obsgroup
obs138	225.093750	1	obsgroup
obs139	349.281250	1	obsgroup
obs140	708.197917	1	obsgroup
obs141	849.500000	1	obsgroup
obs142	886.468750	1	obsgroup
obs143	1047.500000	1	obsgroup
obs144	1089.437500	1	obsgroup
obs145	968.489583	1	obsgroup
obs146	850.697917	1	obsgroup
obs147	862.604167	1	obsgroup
obs148	957.885417	1	obsgroup
obs149	853.760417	1	obsgroup
obs150	555.895833	1	obsgroup
obs151	535.260417	1	obsgroup
obs152	698.156250	1	obsgroup
obs153	1772.083333	1	obsgroup
obs154	3881.458333	1	obsgroup
obs155	3954.895833	1	obsgroup
obs156	3598.645833	1	obsgroup
obs157	2329.479167	1	obsgroup
obs158	1571.770833	1	obsgroup
obs159	1222.187500	1	obsgroup
obs160	1148.020833	1	obsgroup
obs161	1071.979167	1	obsgroup
obs162	1471.458333	1	obsgroup
obs163	1398.229167	1	obsgroup
obs164	1048.593750	1	obsgroup
obs165	889.406250	1	obsgroup
obs166	712.739583	1	obsgroup
obs167	538.572917	1	obsgroup
obs168	483.406250	1	obsgroup
obs169	407.541667	1	obsgroup
obs170	365.958333	1	obsgroup
obs171	353.052083	1	obsgroup
obs172	235.197917	1	obsgroup
obs173	221.187500	1	obsgroup
obs174	221.000000	1	obsgroup
obs175	221.000000	1	obsgroup
obs176	221.000000	1	obsgroup
obs177	221.000000	1	obsgroup
obs178	233.479167	1	obsgroup
obs179	230.510417	1	obsgroup
obs180	221.000000	1	obsgroup
obs181	221.000000	1	obsgroup
obs182	221.000000	1	obsgroup
obs183	221.000000	1	obsgroup
obs184	221.000000	1	obsgroup
obs185	221.000000	1	obsgroup
obs186	253.937500	1	obsgroup
obs187	499.364583	1	obsgroup
obs188	510.541667	1	obsgroup
obs189	509.281250	1	obsgroup
obs190	527.302083	1	obsgroup
obs191	852.041667	1	obsgroup
obs192	1141.041667	1	obsgroup
obs193	1436.562500	1	obsgroup
obs194	1428.333333	1	obsgroup
obs195	1434.375000	1	obsgroup
obs196	1420.729167	1	obsgroup
obs197	1414.062500	1	obsgroup
obs198	1406.979167	1	obsgroup
obs199	1397.187500	1	obsgroup
obs200	1435.312500	1	obsgroup
obs201	1445.937500	1	obsgroup
obs202	1437.916667	1	obsgroup
obs203	1429.166667	1	obsgroup
obs204	1439.166667	1	obsgroup
obs205	1455.104167	1	obsgroup
obs206	1445.312500	1	obsgroup
obs207	1437.916667	1	obsgroup
obs208	1423.263158	1	obsgroup
obs209	1408.333333	1	obsgroup
obs210	1393.854167	1	obsgroup
obs211	1344.375000	1	obsgroup
obs212	1232.291667	1	obsgroup
obs213	1132.604167	1	obsgroup
obs214	1039.072917	1	obsgroup
obs215	974.760417	1	obsgroup
obs216	968.114583	1	obsgroup
obs217	961.375000	1	obsgroup
obs218	914.437500	1	obsgroup
obs219	818.000000	1	obsgroup
obs220	727.031250	1	obsgroup
obs221	591.125000	1	obsgroup
obs222	415.562500	1	obsgroup
obs223	190.622917	1	obsgroup
obs224	85.000000	1	obsgroup
obs225	85.000000	1	obsgroup
obs226	84.979167	1	obsgroup
obs227	85.000000	1	obsgroup
obs228	85.000000	1	obsgroup
obs229	84.916667	1	obsgroup
obs230	84.979167	1	obsgroup
obs231	84.937500	1	obsgroup
obs232	84.937500	1	obsgroup
obs233	84.937500	1	obsgroup
obs234	84.979167	1	obsgroup
obs235	84.937500	1	obsgroup
obs236	84.917708	1	obsgroup
obs237	83.441758	1	obsgroup
obs238	81.416667	1	obsgroup
obs239	82.145833	1	obsgroup
obs240	82.791667	1	obsgroup
obs241	82.979167	1	obsgroup
obs242	83.229167	1	obsgroup
obs243	83.000000	1	obsgroup
obs244	119.791667	1	obsgroup
obs245	187.718750	1	obsgroup
obs246	187.812500	1	obsgroup
obs247	187.906250	1	obsgroup
obs248	188.000000	1	obsgroup
obs249	188.000000	1	obsgroup
obs250	188.531250	1	obsgroup
obs251	188.468750	1	obsgroup
obs252	188.031250	1	obsgroup
obs253	187.968750	1	obsgroup
obs254	187.895833	1	obsgroup
obs255	188.000000	1	obsgroup
obs256	188.062500	1	obsgroup
obs257	188.125000	1	obsgroup
obs258	188.625000	1	obsgroup
obs259	188.479167	1	obsgroup
obs260	284.385417	1	obsgroup
obs261	344.541667	1	obsgroup
obs262	343.833333	1	obsgroup
obs263	342.458333	1	obsgroup
obs264	341.458333	1	obsgroup
obs265	338.916667	1	obsgroup
obs266	338.041667	1	obsgroup
obs267	336.291667	1	obsgroup
obs268	334.625000	1	obsgroup
obs269	332.208333	1	obsgroup
obs270	330.875000	1	obsgroup
obs271	329.791667	1	obsgroup
obs272	327.833333	1	obsgroup
obs273	326.666667	1	obsgroup
obs274	324.458333	1	obsgroup
obs275	322.916667	1	obsgroup
obs276	321.635417	1	obsgroup
obs277	320.093750	1	obsgroup
obs278	318.656250	1	obsgroup
obs279	316.770833	1	obsgroup
obs280	332.687500	1	obsgroup
obs281	337.750000	1	obsgroup
obs282	336.583333	1	obsgroup
obs283	335.333333	1	obsgroup
obs284	333.458333	1	obsgroup
obs285	330.916667	1	obsgroup
obs286	329.250000	1	obsgroup
obs287	326.750000	1	obsgroup
obs288	324.500000	1	obsgroup
obs289	322.666667	1	obsgroup
obs290	339.395833	1	obsgroup
obs291	350.083333	1	obsgroup
obs292	349.208333	1	obsgroup
obs293	346.291667	1	obsgroup
obs294	355.958333	1	obsgroup
obs295	463.479167	1	obsgroup
obs296	729.229167	1	obsgroup
obs297	759.437500	1	obsgroup
obs298	760.666667	1	obsgroup
obs299	773.229167	1	obsgroup
obs300	770.489583	1	obsgroup
obs301	763.541667	1	obsgroup
obs302	720.354167	1	obsgroup
obs303	587.406250	1	obsgroup
obs304	508.822917	1	obsgroup
obs305	416.010417	1	obsgroup
obs306	377.083333	1	obsgroup
obs307	374.416667	1	obsgroup
obs308	371.625000	1	obsgroup
obs309	367.875000	1	obsgroup
obs310	364.458333	1	obsgroup
obs311	516.370000	1	obsgroup
obs312	831.062500	1	obsgroup
obs313	967.572917	1	obsgroup
obs314	970.437500	1	obsgroup
obs315	972.406250	1	obsgroup
obs316	958.312500	1	obsgroup
obs317	935.635417	1	obsgroup
obs318	721.114583	1	obsgroup
obs319	707.458333	1	obsgroup
obs320	983.760417	1	obsgroup
obs321	687.156250	1	obsgroup
obs322	895.093750	1	obsgroup
obs323	1168.541667	1	obsgroup
obs324	1102.708333	1	obsgroup
obs325	809.645833	1	obsgroup
obs326	626.520833	1	obsgroup
obs327	653.177083	1	obsgroup
obs328	626.437500	1	obsgroup
obs329	390.479167	1	obsgroup
obs330	311.260417	1	obsgroup
obs331	654.416667	1	obsgroup
obs332	1058.020833	1	obsgroup
obs333	1036.739583	1	obsgroup
obs334	1064.895833	1	obsgroup
obs335	1857.604167	1	obsgroup
obs336	2064.791667	1	obsgroup
obs337	2074.583333	1	obsgroup
obs338	1943.229167	1	obsgroup
obs339	1456.875000	1	obsgroup
obs340	1251.562500	1	obsgroup
obs341	1098.239583	1	obsgroup
obs342	951.125000	1	obsgroup
obs343	944.281250	1	obsgroup
obs344	926.687500	1	obsgroup
obs345	595.406250	1	obsgroup
obs346	581.072917	1	obsgroup
obs347	614.260417	1	obsgroup
obs348	662.770833	1	obsgroup
obs349	764.773196	1	obsgroup
obs350	1403.298969	1	obsgroup
obs351	2268.823529	1	obsgroup
obs352	3013.125000	1	obsgroup
obs353	2994.895833	1	obsgroup
obs354	2976.145833	1	obsgroup
obs355	2935.000000	1	obsgroup
obs356	2850.833333	1	obsgroup
obs357	2745.729167	1	obsgroup
obs358	2062.857143	1	obsgroup
obs359	1326.458333	1	obsgroup
obs360	797.468750	1	obsgroup
obs361	593.375000	1	obsgroup
obs362	1056.673469	1	obsgroup
obs363	1936.458333	1	obsgroup
obs364	2051.354167	1	obsgroup
obs365	2027.083333	1	obsgroup
obs366	1965.312500	1	obsgroup
obs367	1888.541667	1	obsgroup
obs368	1740.312500	1	obsgroup
obs369	1393.541667	1	obsgroup
obs370	1257.395833	1	obsgroup
obs371	1302.577320	1	obsgroup
obs372	694.257732	1	obsgroup
obs373	751.135417	1	obsgroup
obs374	723.229167	1	obsgroup
obs375	605.000000	1	obsgroup
obs376	542.927083	1	obsgroup
obs377	506.760417	1	obsgroup
obs378	767.474227	1	obsgroup
obs379	1743.958333	1	obsgroup
obs380	1614.123711	1	obsgroup
obs381	2212.500000	1	obsgroup
obs382	2779.583333	1	obsgroup
obs383	3011.354167	1	obsgroup
obs384	3786.041667	1	obsgroup
obs385	3349.062500	1	obsgroup
obs386	2660.416667	1	obsgroup
obs387	2481.428571	1	obsgroup
obs388	2006.562500	1	obsgroup
obs389	1430.444444	1	obsgroup
obs390	1128.187500	1	obsgroup
obs391	750.666667	1	obsgroup
obs392	590.656250	1	obsgroup
obs393	539.822917	1	obsgroup
obs394	391.218750	1	obsgroup
obs395	228.051546	1	obsgroup
obs396	121.924490	1	obsgroup
obs397	98.011458	1	obsgroup
obs398	105.666667	1	obsgroup
obs399	81.816667	1	obsgroup
obs400	57.750000	1	obsgroup
obs401	58.000000	1	obsgroup
obs402	58.000000	1	obsgroup
obs403	58.116667	1	obsgroup
obs404	58.700000	1	obsgroup
obs405	59.183333	1	obsgroup
obs406	58.666667	1	obsgroup
obs407	55.393750	1	obsgroup
obs408	54.321875	1	obsgroup
obs409	54.806250	1	obsgroup
obs410	55.498958	1	obsgroup
obs411	64.841667	1	obsgroup
obs412	57.060417	1	obsgroup
obs413	54.525000	1	obsgroup
obs414	51.741667	1	obsgroup
obs415	47.889583	1	obsgroup
obs416	46.985417	1	obsgroup
obs417	45.961458	1	obsgroup
obs418	58.692708	1	obsgroup
obs419	63.844792	1	obsgroup
obs420	63.038542	1	obsgroup
obs421	53.446875	1	obsgroup
obs422	53.337500	1	obsgroup
obs423	53.384375	1	obsgroup
obs424	54.290625	1	obsgroup
obs425	54.946875	1	obsgroup
obs426	55.134375	1	obsgroup
obs427	56.819792	1	obsgroup
obs428	58.841667	1	obsgroup
obs429	62.270833	1	obsgroup
obs430	53.296875	1	obsgroup
obs431	51.931250	1	obsgroup
obs432	61.014583	1	obsgroup
obs433	58.934375	1	obsgroup
obs434	65.379167	1	obsgroup
obs435	494.325000	1	obsgroup
obs436	1161.458333	1	obsgroup
obs437	1269.021739	1	obsgroup
obs438	1131.250000	1	obsgroup
obs439	1090.937500	1	obsgroup
obs440	1092.604167	1	obsgroup
obs441	1092.395833	1	obsgroup
obs442	980.020833	1	obsgroup
obs443	782.270833	1	obsgroup
obs444	696.229167	1	obsgroup
obs445	586.718750	1	obsgroup
obs446	538.208333	1	obsgroup
obs447	448.250000	1	obsgroup
obs448	257.427083	1	obsgroup
obs449	175.406250	1	obsgroup
obs450	179.093750	1	obsgroup
obs451	260.739583	1	obsgroup
obs452	479.432990	1	obsgroup
obs453	635.802083	1	obsgroup
obs454	839.604167	1	obsgroup
obs455	998.686275	1	obsgroup
obs456	1370.312500	1	obsgroup
obs457	1560.833333	1	obsgroup
obs458	1558.437500	1	obsgroup
obs459	1559.375000	1	obsgroup
obs460	1573.750000	1	obsgroup
obs461	1784.851485	1	obsgroup
obs462	1997.083333	1	obsgroup
obs463	1986.250000	1	obsgroup
obs464	1826.458333	1	obsgroup
obs465	1493.229167	1	obsgroup
obs466	1251.326531	1	obsgroup
obs467	970.951456	1	obsgroup
obs468	831.562500	1	obsgroup
obs469	833.687500	1	obsgroup
obs470	1133.979381	1	obsgroup
obs471	1513.333333	1	obsgroup
obs472	1891.979167	1	obsgroup
obs473	1836.770833	1	obsgroup
obs474	1310.040404	1	obsgroup
obs475	879.854167	1	obsgroup
obs476	635.281250	1	obsgroup
obs477	553.270833	1	obsgroup
obs478	429.649485	1	obsgroup
obs479	277.781250	1	obsgroup
obs480	220.090000	1	obsgroup
obs481	723.204082	1	obsgroup
obs482	777.608247	1	obsgroup
obs483	703.824742	1	obsgroup
obs484	694.843750	1	obsgroup
obs485	830.500000	1	obsgroup
obs486	829.375000	1	obsgroup
obs487	810.031250	1	obsgroup
obs488	628.835052	1	obsgroup
obs489	430.072165	1	obsgroup
obs490	323.690722	1	obsgroup
obs491	282.979167	1	obsgroup
obs492	264.250000	1	obsgroup
obs493	265.989583	1	obsgroup
obs494	380.835052	1	obsgroup
obs495	458.281250	1	obsgroup
obs496	559.500000	1	obsgroup
obs497	845.791667	1	obsgroup
obs498	937.687500	1	obsgroup
obs499	937.093750	1	obsgroup
obs500	881.041667	1	obsgroup
obs501	744.916667	1	obsgroup
obs502	641.906250	1	obsgroup
obs503	625.166667	1	obsgroup
obs504	617.572917	1	obsgroup
obs505	587.322917	1	obsgroup
obs506	587.375000	1	obsgroup
obs507	503.297030	1	obsgroup
obs508	343.051546	1	obsgroup
obs509	263.729167	1	obsgroup
obs510	534.281250	1	obsgroup
obs511	841.250000	1	obsgroup
obs512	946.270833	1	obsgroup
obs513	1628.541667	1	obsgroup
obs514	1735.937500	1	obsgroup
obs515	1593.437500	1	obsgroup
obs516	1438.125000	1	obsgroup
obs517	1623.750000	1	obsgroup
obs518	1591.145833	1	obsgroup
obs519	1465.104167	1	obsgroup
obs520	1173.092784	1	obsgroup
obs521	1057.319588	1	obsgroup
obs522	912.645833	1	obsgroup
obs523	715.822917	1	obsgroup
obs524	547.885417	1	obsgroup
obs525	498.412371	1	obsgroup
obs526	447.760417	1	obsgroup
obs527	390.625000	1	obsgroup
obs528	326.166667	1	obsgroup
obs529	242.593750	1	obsgroup
obs530	242.750000	1	obsgroup
obs531	243.093750	1	obsgroup
obs532	219.510417	1	obsgroup
obs533	171.500000	1	obsgroup
obs534	172.166667	1	obsgroup
obs535	172.666667	1	obsgroup
obs536	172.593750	1	obsgroup
obs537	172.750000	1	obsgroup
obs538	172.916667	1	obsgroup
obs539	172.937500	1	obsgroup
obs540	172.958333	1	obsgroup
obs541	172.875000	1	obsgroup
obs542	172.875000	1	obsgroup
obs543	172.812500	1	obsgroup
obs544	191.711340	1	obsgroup
obs545	301.041237	1	obsgroup
obs546	253.937500	1	obsgroup
obs547	254.156250	1	obsgroup
obs548	226.040404	1	obsgroup
obs549	221.916667	1	obsgroup
obs550	221.958333	1	obsgroup
obs551	221.666667	1	obsgroup
obs552	221.666667	1	obsgroup
obs553	178.937500	1	obsgroup
obs554	131.153061	1	obsgroup
obs555	101.000000	1	obsgroup
obs556	100.977083	1	obsgroup
obs557	100.977083	1	obsgroup
obs558	101.041667	1	obsgroup
obs559	101.000000	1	obsgroup
obs560	100.977083	1	obsgroup
obs561	100.977083	1	obsgroup
obs562	101.104167	1	obsgroup
obs563	101.854167	1	obsgroup
obs564	101.062500	1	obsgroup
obs565	291.618557	1	obsgroup
obs566	424.040816	1	obsgroup
obs567	366.375000	1	obsgroup
obs568	304.697917	1	obsgroup
obs569	284.062500	1	obsgroup
obs570	265.432990	1	obsgroup
obs571	221.875000	1	obsgroup
obs572	204.822917	1	obsgroup
obs573	175.479167	1	obsgroup
obs574	175.406250	1	obsgroup
obs575	175.281250	1	obsgroup
obs576	174.718750	1	obsgroup
obs577	174.406250	1	obsgroup
obs578	135.191667	1	obsgroup
obs579	99.304167	1	obsgroup
obs580	99.076042	1	obsgroup
obs581	98.960417	1	obsgroup
obs582	99.075000	1	obsgroup
obs583	99.006250	1	obsgroup
obs584	99.075000	1	obsgroup
obs585	98.800000	1	obsgroup
obs586	98.891667	1	obsgroup
obs587	98.718750	1	obsgroup
obs588	98.846875	1	obsgroup
obs589	98.801042	1	obsgroup
obs590	98.800000	1	obsgroup
obs591	98.800000	1	obsgroup
obs592	98.779167	1	obsgroup
obs593	98.800000	1	obsgroup
obs594	99.217172	1	obsgroup
obs595	98.960417	1	obsgroup
obs596	98.800000	1	obsgroup
obs597	98.800000	1	obsgroup
obs598	98.778125	1	obsgroup
obs599	98.712500	1	obsgroup
obs600	124.288776	1	obsgroup
obs601	172.250000	1	obsgroup
obs602	172.041667	1	obsgroup
obs603	171.895833	1	obsgroup
obs604	171.687500	1	obsgroup
obs605	171.458333	1	obsgroup
obs606	171.479167	1	obsgroup
obs607	171.802083	1	obsgroup
obs608	171.812500	1	obsgroup
obs609	171.916667	1	obsgroup
obs610	171.416667	1	obsgroup
obs611	171.416667	1	obsgroup
obs612	295.535354	1	obsgroup
obs613	501.422680	1	obsgroup
obs614	683.927835	1	obsgroup
obs615	750.447917	1	obsgroup
obs616	747.562500	1	obsgroup
obs617	744.812500	1	obsgroup
obs618	742.875000	1	obsgroup
obs619	740.770833	1	obsgroup
obs620	738.343750	1	obsgroup
obs621	737.395833	1	obsgroup
obs622	737.083333	1	obsgroup
obs623	749.104167	1	obsgroup
obs624	768.187500	1	obsgroup
obs625	766.187500	1	obsgroup
obs626	763.552083	1	obsgroup
obs627	761.447917	1	obsgroup
obs628	760.791667	1	obsgroup
obs629	757.760417	1	obsgroup
obs630	787.104167	1	obsgroup
obs631	810.125000	1	obsgroup
obs632	806.312500	1	obsgroup
obs633	803.625000	1	obsgroup
obs634	802.062500	1	obsgroup
obs635	798.593750	1	obsgroup
obs636	795.833333	1	obsgroup
obs637	793.343750	1	obsgroup
obs638	789.069307	1	obsgroup
obs639	797.604167	1	obsgroup
obs640	796.031250	1	obsgroup
obs641	793.770833	1	obsgroup
obs642	790.500000	1	obsgroup
obs643	808.572917	1	obsgroup
obs644	856.125000	1	obsgroup
obs645	851.375000	1	obsgroup
obs646	846.000000	1	obsgroup
obs647	842.000000	1	obsgroup
obs648	838.750000	1	obsgroup
obs649	835.062500	1	obsgroup
obs650	829.812500	1	obsgroup
obs651	825.250000	1	obsgroup
obs652	820.916667	1	obsgroup
obs653	816.552083	1	obsgroup
obs654	812.125000	1	obsgroup
obs655	806.000000	1	obsgroup
obs656	800.729167	1	obsgroup
obs657	795.833333	1	obsgroup
obs658	791.062500	1	obsgroup
obs659	785.187500	1	obsgroup
obs660	779.281250	1	obsgroup
obs661	773.750000	1	obsgroup
obs662	768.145833	1	obsgroup
obs663	745.468750	1	obsgroup
obs664	734.604167	1	obsgroup
obs665	729.062500	1	obsgroup
obs666	723.187500	1	obsgroup
obs667	717.500000	1	obsgroup
obs668	716.525773	1	obsgroup
obs669	750.395833	1	obsgroup
obs670	756.093750	1	obsgroup
obs671	787.937500	1	obsgroup
obs672	779.583333	1	obsgroup
obs673	771.708333	1	obsgroup
obs674	763.125000	1	obsgroup
obs675	754.656250	1	obsgroup
obs676	745.937500	1	obsgroup
obs677	735.739583	1	obsgroup
obs678	725.812500	1	obsgroup
obs679	731.377551	1	obsgroup
obs680	738.343750	1	obsgroup
obs681	728.427083	1	obsgroup
obs682	715.989583	1	obsgroup
obs683	706.302083	1	obsgroup
obs684	759.177083	1	obsgroup
obs685	729.806122	1	obsgroup
obs686	721.144330	1	obsgroup
obs687	845.562500	1	obsgroup
obs688	1023.247423	1	obsgroup
obs689	1085.416667	1	obsgroup
obs690	1276.494845	1	obsgroup
obs691	0.000000	0	obsgroup
obs692	0.000000	0	obsgroup
obs693	0.000000	0	obsgroup
obs694	0.000000	0	obsgroup
obs695	0.000000	0	obsgroup
obs696	0.000000	0	obsgroup
obs697	0.000000	0	obsgroup
obs698	0.000000	0	obsgroup
obs699	0.000000	0	obsgroup
obs700	0.000000	0	obsgroup
obs701	0.000000	0	obsgroup
obs702	0.000000	0	obsgroup
obs703	0.000000	0	obsgroup
obs704	0.000000	0	obsgroup
obs705	0.000000	0	obsgroup
obs706	0.000000	0	obsgroup
obs707	0.000000	0	obsgroup
obs708	0.000000	0	obsgroup
obs709	0.000000	0	obsgroup
obs710	0.000000	0	obsgroup
obs711	0.000000	0	obsgroup
obs712	0.000000	0	obsgroup
obs713	0.000000	0	obsgroup
obs714	0.000000	0	obsgroup
obs715	0.000000	0	obsgroup
obs716	0.000000	0	obsgroup
obs717	0.000000	0	obsgroup
obs718	0.000000	0	obsgroup
obs719	0.000000	0	obsgroup
obs720	0.000000	0	obsgroup
obs721	0.000000	0	obsgroup
obs722	0.000000	0	obsgroup
obs723	0.000000	0	obsgroup
obs724	0.000000	0	obsgroup
obs725	0.000000	0	obsgroup
obs726	0.000000	0	obsgroup
obs727	0.000000	0	obsgroup
obs728	0.000000	0	obsgroup
obs729	0.000000	0	obsgroup
obs730	0.000000	0	obsgroup
obs731	0.000000	0	obsgroup
obs732	0.000000	0	obsgroup
obs733	0.000000	0	obsgroup
obs734	0.000000	0	obsgroup
obs735	0.000000	0	obsgroup
obs736	0.000000	0	obsgroup
obs737	0.000000	0	obsgroup
obs738	0.000000	0	obsgroup
obs739	0.000000	0	obsgroup
obs740	0.000000	0	obsgroup
obs741	0.000000	0	obsgroup
obs742	0.000000	0	obsgroup
obs743	0.000000	0	obsgroup
obs744	0.000000	0	obsgroup
obs745	0.000000	0	obsgroup
obs746	0.000000	0	obsgroup
obs747	0.000000	0	obsgroup
obs748	0.000000	0	obsgroup
obs749	0.000000	0	obsgroup
obs750	0.000000	0	obsgroup
obs751	0.000000	0	obsgroup
obs752	0.000000	0	obsgroup
obs753	0.000000	0	obsgroup
obs754	0.000000	0	obsgroup
obs755	0.000000	0	obsgroup
obs756	0.000000	0	obsgroup
obs757	4089.896907	1	obsgroup
obs758	3483.137255	1	obsgroup
obs759	2758.494624	1	obsgroup
obs760	2129.805825	1	obsgroup
obs761	1279.587629	1	obsgroup
obs762	701.030928	1	obsgroup
obs763	528.309278	1	obsgroup
obs764	534.875000	1	obsgroup
obs765	538.739583	1	obsgroup
obs766	542.062500	1	obsgroup
obs767	545.927083	1	obsgroup
obs768	410.187500	1	obsgroup
obs769	299.479167	1	obsgroup
obs770	280.937500	1	obsgroup
obs771	224.326531	1	obsgroup
obs772	107.968750	1	obsgroup
obs773	64.295918	1	obsgroup
obs774	61.616667	1	obsgroup
obs775	62.016667	1	obsgroup
obs776	62.116667	1	obsgroup
obs777	61.966667	1	obsgroup
obs778	62.600000	1	obsgroup
obs779	64.269792	1	obsgroup
obs780	64.677083	1	obsgroup
obs781	68.651042	1	obsgroup
obs782	396.037374	1	obsgroup
obs783	821.300971	1	obsgroup
obs784	1381.649485	1	obsgroup
obs785	1080.313131	1	obsgroup
obs786	890.135417	1	obsgroup
obs787	546.197917	1	obsgroup
obs788	294.885417	1	obsgroup
obs789	136.745918	1	obsgroup
obs790	118.377320	1	obsgroup
obs791	801.385417	1	obsgroup
obs792	882.750000	1	obsgroup
obs793	879.750000	1	obsgroup
obs794	813.438776	1	obsgroup
obs795	824.947917	1	obsgroup
obs796	1262.808081	1	obsgroup
obs797	1019.019608	1	obsgroup
obs798	666.187500	1	obsgroup
obs799	526.218750	1	obsgroup
obs800	462.000000	1	obsgroup
obs801	419.043478	1	obsgroup
obs802	419.500000	1	obsgroup
obs803	430.114583	1	obsgroup
obs804	430.906250	1	obsgroup
obs805	753.831683	1	obsgroup
obs806	1326.736842	1	obsgroup
obs807	1546.979167	1	obsgroup
obs808	1505.937500	1	obsgroup
obs809	1468.541667	1	obsgroup
obs810	1496.250000	1	obsgroup
obs811	1579.062500	1	obsgroup
obs812	1615.625000	1	obsgroup
obs813	1599.687500	1	obsgroup
obs814	1593.958333	1	obsgroup
obs815	1589.687500	1	obsgroup
obs816	1778.613861	1	obsgroup
obs817	1996.250000	1	obsgroup
obs818	2249.062500	1	obsgroup
obs819	2499.375000	1	obsgroup
obs820	2521.770833	1	obsgroup
obs821	2538.437500	1	obsgroup
obs822	2540.416667	1	obsgroup
obs823	2530.208333	1	obsgroup
obs824	2517.187500	1	obsgroup
obs825	2505.104167	1	obsgroup
obs826	2207.857143	1	obsgroup
obs827	1728.437500	1	obsgroup
obs828	1205.104167	1	obsgroup
obs829	764.693069	1	obsgroup
obs830	479.391753	1	obsgroup
obs831	411.270833	1	obsgroup
obs832	365.031250	1	obsgroup
obs833	261.750000	1	obsgroup
obs834	213.187500	1	obsgroup
obs835	213.093750	1	obsgroup
obs836	213.406250	1	obsgroup
obs837	605.793814	1	obsgroup
obs838	1005.895833	1	obsgroup
obs839	847.938144	1	obsgroup
obs840	749.302083	1	obsgroup
obs841	988.329897	1	obsgroup
obs842	968.802083	1	obsgroup
obs843	691.541667	1	obsgroup
obs844	547.864583	1	obsgroup
obs845	484.562500	1	obsgroup
obs846	430.500000	1	obsgroup
obs847	430.010417	1	obsgroup
obs848	441.364583	1	obsgroup
obs849	820.494949	1	obsgroup
obs850	947.929293	1	obsgroup
obs851	892.937500	1	obsgroup
obs852	910.697917	1	obsgroup
obs853	993.989583	1	obsgroup
obs854	1051.578947	1	obsgroup
obs855	1151.145833	1	obsgroup
obs856	1213.229167	1	obsgroup
obs857	1227.812500	1	obsgroup
obs858	1152.187500	1	obsgroup
obs859	961.175258	1	obsgroup
obs860	790.843750	1	obsgroup
obs861	617.395833	1	obsgroup
obs862	424.135417	1	obsgroup
obs863	334.500000	1	obsgroup
obs864	334.708333	1	obsgroup
obs865	305.927835	1	obsgroup
obs866	295.687500	1	obsgroup
obs867	266.329897	1	obsgroup
obs868	169.102041	1	obsgroup
obs869	150.416667	1	obsgroup
obs870	195.489796	1	obsgroup
obs871	228.250000	1	obsgroup
obs872	310.948980	1	obsgroup
obs873	421.208333	1	obsgroup
obs874	420.208333	1	obsgroup
obs875	466.979167	1	obsgroup
obs876	1424.333333	1	obsgroup
obs877	1634.583333	1	obsgroup
obs878	1313.686869	1	obsgroup
obs879	747.806122	1	obsgroup
obs880	505.281250	1	obsgroup
obs881	482.458333	1	obsgroup
obs882	481.916667	1	obsgroup
obs883	385.781250	1	obsgroup
obs884	325.375000	1	obsgroup
obs885	325.562500	1	obsgroup
obs886	491.030928	1	obsgroup
obs887	1450.000000	1	obsgroup
obs888	1590.729167	1	obsgroup
obs889	1393.645833	1	obsgroup
obs890	1012.893204	1	obsgroup
obs891	1716.666667	1	obsgroup
obs892	1826.767677	1	obsgroup
obs893	1196.468750	1	obsgroup
obs894	776.340206	1	obsgroup
obs895	565.281250	1	obsgroup
obs896	563.052083	1	obsgroup
obs897	499.427083	1	obsgroup
obs898	451.604167	1	obsgroup
obs899	358.357143	1	obsgroup
obs900	354.229167	1	obsgroup
obs901	354.427083	1	obsgroup
obs902	320.101010	1	obsgroup
obs903	315.458333	1	obsgroup
obs904	297.333333	1	obsgroup
obs905	345.791667	1	obsgroup
obs906	655.571429	1	obsgroup
obs907	734.770833	1	obsgroup
obs908	735.697917	1	obsgroup
obs909	672.701031	1	obsgroup
obs910	450.625000	1	obsgroup
obs911	328.218750	1	obsgroup
obs912	247.250000	1	obsgroup
obs913	234.406250	1	obsgroup
obs914	228.218750	1	obsgroup
obs915	228.250000	1	obsgroup
obs916	187.927083	1	obsgroup
obs917	150.291667	1	obsgroup
obs918	150.270833	1	obsgroup
obs919	167.739583	1	obsgroup
obs920	155.708333	1	obsgroup
obs921	150.187500	1	obsgroup
obs922	183.906250	1	obsgroup
obs923	190.979381	1	obsgroup
obs924	192.714286	1	obsgroup
obs925	154.000000	1	obsgroup
obs926	156.000000	1	obsgroup
obs927	155.906250	1	obsgroup
obs928	154.670103	1	obsgroup
obs929	153.515464	1	obsgroup
obs930	151.916667	1	obsgroup
obs931	151.750000	1	obsgroup
obs932	151.312500	1	obsgroup
obs933	151.333333	1	obsgroup
obs934	151.187500	1	obsgroup
obs935	151.326316	1	obsgroup
obs936	151.625000	1	obsgroup
obs937	151.104167	1	obsgroup
obs938	150.687500	1	obsgroup
obs939	150.583333	1	obsgroup
obs940	150.583333	1	obsgroup
obs941	150.208333	1	obsgroup
obs942	150.437500	1	obsgroup
obs943	150.250000	1	obsgroup
obs944	150.197917	1	obsgroup
obs945	150.208333	1	obsgroup
obs946	150.166667	1	obsgroup
obs947	150.208333	1	obsgroup
obs948	150.145833	1	obsgroup
obs949	150.208333	1	obsgroup
obs950	150.072917	1	obsgroup