pcf
* control data
restart  estimation
    8  3287     8     0     1
    1     1 single point   1   0   0
  5.0   2.0   0.3  0.03    10  999  lamforgive  derforgive
  3.0   3.0 0.001  0
  0.1
   30  0.01     3     3  0.01     3
    1     1     1     1
* parameter groups
fc           relative 0.01  0.0  switch  2.0 parabolic
beta         relative 0.01  0.0  switch  2.0 parabolic
perc         relative 0.01  0.0  switch  2.0 parabolic
uzl          relative 0.01  0.0  switch  2.0 parabolic
k0           relative 0.01  0.0  switch  2.0 parabolic
k1           relative 0.01  0.0  switch  2.0 parabolic
k2           relative 0.01  0.0  switch  2.0 parabolic
et_mult      relative 0.01  0.0  switch  2.0 parabolic
* parameter data
fc           none relative   191.49       50.000000  600.000000      fc              1.0000        0.0000      1
beta         none relative   2.244        1.000000    6.000000       beta            1.0000        0.0000      1
perc         none relative   0.191        0.000100    0.500000       perc            1.0000        0.0000      1
uzl          none relative   1.365        0.100000   75.000000       uzl             1.0000        0.0000      1
k0           none relative   0.534        0.050000    0.700000       k0              1.0000        0.0000      1
k1           none relative   0.279        0.010000    0.400000       k1              1.0000        0.0000      1
k2           none relative   0.061	  0.000100    0.150000       k2              1.0000        0.0000      1
et_mult      none relative   1            0.100000    10.00000       et_mult         1.0000        0.0000      1
* observation groups
obsgroup
* observation data
obs1	7271.428571	1	obsgroup
obs2	7874.400000	1	obsgroup
obs3	6910.635838	1	obsgroup
obs4	5858.023256	1	obsgroup
obs5	7859.470588	1	obsgroup
obs6	9989.299363	1	obsgroup
obs7	10146.927711	1	obsgroup
obs8	9764.058824	1	obsgroup
obs9	9132.000000	1	obsgroup
obs10	8601.385542	1	obsgroup
obs11	7051.360947	1	obsgroup
obs12	6550.975610	1	obsgroup
obs13	6660.303030	1	obsgroup
obs14	5212.781065	1	obsgroup
obs15	3836.130952	1	obsgroup
obs16	3262.500000	1	obsgroup
obs17	3546.900585	1	obsgroup
obs18	3641.185185	1	obsgroup
obs19	3388.692308	1	obsgroup
obs20	3183.941606	1	obsgroup
obs21	3000.142857	1	obsgroup
obs22	2507.325581	1	obsgroup
obs23	2482.254335	1	obsgroup
obs24	2475.527950	1	obsgroup
obs25	2590.055556	1	obsgroup
obs26	2546.571429	1	obsgroup
obs27	2348.796992	1	obsgroup
obs28	2217.751479	1	obsgroup
obs29	2092.882353	1	obsgroup
obs30	2004.121212	1	obsgroup
obs31	2006.423841	1	obsgroup
obs32	1988.451613	1	obsgroup
obs33	2040.580645	1	obsgroup
obs34	2036.729560	1	obsgroup
obs35	2168.910256	1	obsgroup
obs36	2175.657895	1	obsgroup
obs37	1784.013158	1	obsgroup
obs38	1472.670807	1	obsgroup
obs39	1316.535948	1	obsgroup
obs40	1304.635762	1	obsgroup
obs41	1126.722581	1	obsgroup
obs42	1053.649635	1	obsgroup
obs43	1176.347305	1	obsgroup
obs44	1173.170732	1	obsgroup
obs45	1164.736842	1	obsgroup
obs46	1159.705882	1	obsgroup
obs47	1174.191617	1	obsgroup
obs48	1166.071429	1	obsgroup
obs49	1141.646341	1	obsgroup
obs50	1095.965909	1	obsgroup
obs51	1031.470968	1	obsgroup
obs52	1007.826446	1	obsgroup
obs53	1000.639535	1	obsgroup
obs54	1003.437500	1	obsgroup
obs55	1043.050847	1	obsgroup
obs56	1070.833333	1	obsgroup
obs57	1078.192090	1	obsgroup
obs58	1079.715909	1	obsgroup
obs59	1054.090909	1	obsgroup
obs60	1035.810056	1	obsgroup
obs61	1231.949438	1	obsgroup
obs62	1000.111765	1	obsgroup
obs63	1021.822222	1	obsgroup
obs64	1010.250000	1	obsgroup
obs65	997.859756	1	obsgroup
obs66	993.327485	1	obsgroup
obs67	1013.276471	1	obsgroup
obs68	999.277108	1	obsgroup
obs69	997.076923	1	obsgroup
obs70	1023.253086	1	obsgroup
obs71	1266.708075	1	obsgroup
obs72	1295.232558	1	obsgroup
obs73	1203.757576	1	obsgroup
obs74	1165.535714	1	obsgroup
obs75	1183.067485	1	obsgroup
obs76	1240.693642	1	obsgroup
obs77	1224.370861	1	obsgroup
obs78	1216.526946	1	obsgroup
obs79	1205.838509	1	obsgroup
obs80	1260.574713	1	obsgroup
obs81	1243.294118	1	obsgroup
obs82	1225.114943	1	obsgroup
obs83	1234.277108	1	obsgroup
obs84	1268.782051	1	obsgroup
obs85	1342.060606	1	obsgroup
obs86	1244.431138	1	obsgroup
obs87	1243.567251	1	obsgroup
obs88	4932.434211	1	obsgroup
obs89	6963.896104	1	obsgroup
obs90	4884.666667	1	obsgroup
obs91	5028.971429	1	obsgroup
obs92	5878.037975	1	obsgroup
obs93	5381.834320	1	obsgroup
obs94	4822.037037	1	obsgroup
obs95	4032.594937	1	obsgroup
obs96	3713.023256	1	obsgroup
obs97	3925.411765	1	obsgroup
obs98	4508.614458	1	obsgroup
obs99	4719.028571	1	obsgroup
obs100	4096.608187	1	obsgroup
obs101	3317.372263	1	obsgroup
obs102	2586.821192	1	obsgroup
obs103	2689.038462	1	obsgroup
obs104	3242.251656	1	obsgroup
obs105	3629.933333	1	obsgroup
obs106	3378.757764	1	obsgroup
obs107	2799.150327	1	obsgroup
obs108	2841.360947	1	obsgroup
obs109	2715.449102	1	obsgroup
obs110	3733.562500	1	obsgroup
obs111	4462.484848	1	obsgroup
obs112	4549.880240	1	obsgroup
obs113	3609.815951	1	obsgroup
obs114	3573.764706	1	obsgroup
obs115	3042.909091	1	obsgroup
obs116	3208.120805	1	obsgroup
obs117	4809.929577	1	obsgroup
obs118	5187.748344	1	obsgroup
obs119	5289.631902	1	obsgroup
obs120	5495.028571	1	obsgroup
obs121	4429.640719	1	obsgroup
obs122	4195.939394	1	obsgroup
obs123	4644.720497	1	obsgroup
obs124	6240.689655	1	obsgroup
obs125	5914.683544	1	obsgroup
obs126	4921.461988	1	obsgroup
obs127	3515.465116	1	obsgroup
obs128	3169.461078	1	obsgroup
obs129	2997.732558	1	obsgroup
obs130	3019.056604	1	obsgroup
obs131	2959.012346	1	obsgroup
obs132	3146.375000	1	obsgroup
obs133	2953.815789	1	obsgroup
obs134	2928.606061	1	obsgroup
obs135	2806.250000	1	obsgroup
obs136	2376.100629	1	obsgroup
obs137	2381.233766	1	obsgroup
obs138	2442.727273	1	obsgroup
obs139	2631.825397	1	obsgroup
obs140	2131.006711	1	obsgroup
obs141	1790.361446	1	obsgroup
obs142	1777.542857	1	obsgroup
obs143	1799.602273	1	obsgroup
obs144	1776.473988	1	obsgroup
obs145	1749.378531	1	obsgroup
obs146	2573.771429	1	obsgroup
obs147	3717.660819	1	obsgroup
obs148	3389.944134	1	obsgroup
obs149	3095.402299	1	obsgroup
obs150	2819.039548	1	obsgroup
obs151	3004.285714	1	obsgroup
obs152	3817.352941	1	obsgroup
obs153	9313.583815	1	obsgroup
obs154	14108.620690	1	obsgroup
obs155	14519.753086	1	obsgroup
obs156	13197.109827	1	obsgroup
obs157	9834.186047	1	obsgroup
obs158	7100.000000	1	obsgroup
obs159	5889.875000	1	obsgroup
obs160	5765.000000	1	obsgroup
obs161	5730.505618	1	obsgroup
obs162	5550.941176	1	obsgroup
obs163	4848.850575	1	obsgroup
obs164	4181.502890	1	obsgroup
obs165	4088.855422	1	obsgroup
obs166	3655.614035	1	obsgroup
obs167	2634.425287	1	obsgroup
obs168	2477.677419	1	obsgroup
obs169	2312.248521	1	obsgroup
obs170	2031.005917	1	obsgroup
obs171	1841.301775	1	obsgroup
obs172	1700.670732	1	obsgroup
obs173	1563.241379	1	obsgroup
obs174	1331.357143	1	obsgroup
obs175	1198.083832	1	obsgroup
obs176	1176.134969	1	obsgroup
obs177	1166.363636	1	obsgroup
obs178	1150.370370	1	obsgroup
obs179	1144.705882	1	obsgroup
obs180	1149.161677	1	obsgroup
obs181	1142.830189	1	obsgroup
obs182	1150.064516	1	obsgroup
obs183	1158.414634	1	obsgroup
obs184	1155.483871	1	obsgroup
obs185	1150.621118	1	obsgroup
obs186	1135.426829	1	obsgroup
obs187	1131.939394	1	obsgroup
obs188	1138.200000	1	obsgroup
obs189	1127.421384	1	obsgroup
obs190	1170.126582	1	obsgroup
obs191	1132.215190	1	obsgroup
obs192	1129.652778	1	obsgroup
obs193	1429.868421	1	obsgroup
obs194	1498.917197	1	obsgroup
obs195	1489.636364	1	obsgroup
obs196	1480.294118	1	obsgroup
obs197	1478.616352	1	obsgroup
obs198	1473.950617	1	obsgroup
obs199	1472.922078	1	obsgroup
obs200	1471.604938	1	obsgroup
obs201	1468.881988	1	obsgroup
obs202	1468.684211	1	obsgroup
obs203	1470.363636	1	obsgroup
obs204	1475.250000	1	obsgroup
obs205	1473.081761	1	obsgroup
obs206	1469.807692	1	obsgroup
obs207	1469.862069	1	obsgroup
obs208	1469.573171	1	obsgroup
obs209	1472.453988	1	obsgroup
obs210	1482.484076	1	obsgroup
obs211	1501.125000	1	obsgroup
obs212	1427.452229	1	obsgroup
obs213	1436.319018	1	obsgroup
obs214	1426.234568	1	obsgroup
obs215	1283.509934	1	obsgroup
obs216	970.268116	1	obsgroup
obs217	762.049587	1	obsgroup
obs218	767.038462	1	obsgroup
obs219	787.522013	1	obsgroup
obs220	786.324503	1	obsgroup
obs221	783.541401	1	obsgroup
obs222	1112.129496	1	obsgroup
obs223	787.142857	1	obsgroup
obs224	790.897059	1	obsgroup
obs225	788.531915	1	obsgroup
obs226	775.818182	1	obsgroup
obs227	783.884615	1	obsgroup
obs228	1158.993827	1	obsgroup
obs229	1213.522876	1	obsgroup
obs230	815.298246	1	obsgroup
obs231	793.411043	1	obsgroup
obs232	817.778443	1	obsgroup
obs233	811.780488	1	obsgroup
obs234	802.912281	1	obsgroup
obs235	804.801205	1	obsgroup
obs236	801.943396	1	obsgroup
obs237	823.208955	1	obsgroup
obs238	803.875000	1	obsgroup
obs239	797.741071	1	obsgroup
obs240	807.092105	1	obsgroup
obs241	814.686747	1	obsgroup
obs242	825.460606	1	obsgroup
obs243	836.065217	1	obsgroup
obs244	808.566434	1	obsgroup
obs245	816.240741	1	obsgroup
obs246	833.525316	1	obsgroup
obs247	833.210843	1	obsgroup
obs248	841.807229	1	obsgroup
obs249	836.621302	1	obsgroup
obs250	895.778443	1	obsgroup
obs251	1009.545455	1	obsgroup
obs252	1140.993377	1	obsgroup
obs253	1161.963190	1	obsgroup
obs254	1215.568182	1	obsgroup
obs255	1230.635838	1	obsgroup
obs256	1296.818182	1	obsgroup
obs257	1467.797619	1	obsgroup
obs258	1519.261364	1	obsgroup
obs259	1516.449704	1	obsgroup
obs260	1523.121387	1	obsgroup
obs261	1540.571429	1	obsgroup
obs262	1600.061728	1	obsgroup
obs263	1631.463415	1	obsgroup
obs264	1578.928571	1	obsgroup
obs265	1567.558140	1	obsgroup
obs266	1606.390533	1	obsgroup
obs267	1561.707317	1	obsgroup
obs268	1554.875000	1	obsgroup
obs269	1558.546512	1	obsgroup
obs270	1556.604938	1	obsgroup
obs271	1558.071429	1	obsgroup
obs272	1523.311765	1	obsgroup
obs273	1566.282051	1	obsgroup
obs274	1560.308642	1	obsgroup
obs275	1539.939024	1	obsgroup
obs276	1547.567568	1	obsgroup
obs277	1569.022989	1	obsgroup
obs278	1554.156627	1	obsgroup
obs279	1550.059880	1	obsgroup
obs280	1587.722772	1	obsgroup
obs281	1574.112903	1	obsgroup
obs282	1576.666667	1	obsgroup
obs283	1599.403974	1	obsgroup
obs284	1606.303030	1	obsgroup
obs285	1593.456790	1	obsgroup
obs286	1595.408805	1	obsgroup
obs287	1549.119497	1	obsgroup
obs288	1544.969325	1	obsgroup
obs289	1308.579882	1	obsgroup
obs290	1159.515152	1	obsgroup
obs291	1160.773810	1	obsgroup
obs292	1152.380952	1	obsgroup
obs293	1150.306748	1	obsgroup
obs294	1129.532164	1	obsgroup
obs295	1607.955801	1	obsgroup
obs296	2180.506329	1	obsgroup
obs297	2262.430556	1	obsgroup
obs298	2630.724638	1	obsgroup
obs299	2662.738095	1	obsgroup
obs300	2434.207317	1	obsgroup
obs301	2344.104046	1	obsgroup
obs302	2323.176471	1	obsgroup
obs303	2281.212121	1	obsgroup
obs304	2351.052632	1	obsgroup
obs305	2370.704225	1	obsgroup
obs306	2953.207547	1	obsgroup
obs307	3052.108844	1	obsgroup
obs308	3291.907895	1	obsgroup
obs309	3289.586207	1	obsgroup
obs310	3270.759494	1	obsgroup
obs311	3503.872832	1	obsgroup
obs312	4421.292135	1	obsgroup
obs313	5882.891566	1	obsgroup
obs314	5615.593220	1	obsgroup
obs315	4226.091954	1	obsgroup
obs316	3788.170732	1	obsgroup
obs317	3555.974843	1	obsgroup
obs318	3662.000000	1	obsgroup
obs319	3835.574713	1	obsgroup
obs320	4082.960526	1	obsgroup
obs321	4252.077922	1	obsgroup
obs322	5930.674847	1	obsgroup
obs323	5540.724638	1	obsgroup
obs324	5304.859155	1	obsgroup
obs325	5313.809524	1	obsgroup
obs326	5493.722628	1	obsgroup
obs327	6462.202381	1	obsgroup
obs328	6425.029240	1	obsgroup
obs329	6215.680473	1	obsgroup
obs330	6139.881657	1	obsgroup
obs331	6392.312139	1	obsgroup
obs332	6454.497041	1	obsgroup
obs333	6362.105263	1	obsgroup
obs334	6875.802469	1	obsgroup
obs335	9431.348315	1	obsgroup
obs336	9540.114286	1	obsgroup
obs337	8780.596026	1	obsgroup
obs338	7400.493827	1	obsgroup
obs339	6794.675325	1	obsgroup
obs340	6779.693252	1	obsgroup
obs341	6380.860927	1	obsgroup
obs342	6662.972973	1	obsgroup
obs343	7459.216867	1	obsgroup
obs344	9094.682081	1	obsgroup
obs345	9309.815951	1	obsgroup
obs346	11065.625000	1	obsgroup
obs347	12544.117647	1	obsgroup
obs348	13630.769231	1	obsgroup
obs349	12713.043478	1	obsgroup
obs350	12578.205128	1	obsgroup
obs351	12447.260274	1	obsgroup
obs352	12455.172414	1	obsgroup
obs353	12409.523810	1	obsgroup
obs354	12314.765101	1	obsgroup
obs355	11342.068966	1	obsgroup
obs356	8808.823529	1	obsgroup
obs357	5763.000000	1	obsgroup
obs358	3961.408451	1	obsgroup
obs359	2069.586207	1	obsgroup
obs360	1664.671533	1	obsgroup
obs361	1813.712575	1	obsgroup
obs362	4508.404908	1	obsgroup
obs363	7645.271318	1	obsgroup
obs364	3925.172414	1	obsgroup
obs365	5869.618321	1	obsgroup
obs366	6553.773585	1	obsgroup
obs367	6227.941176	1	obsgroup
obs368	5072.479339	1	obsgroup
obs369	2779.147287	1	obsgroup
obs370	2538.023256	1	obsgroup
obs371	1732.363636	1	obsgroup
obs372	1808.855422	1	obsgroup
obs373	1994.615385	1	obsgroup
obs374	1992.196532	1	obsgroup
obs375	2779.657534	1	obsgroup
obs376	3815.371429	1	obsgroup
obs377	4660.062893	1	obsgroup
obs378	6007.309942	1	obsgroup
obs379	6357.910448	1	obsgroup
obs380	6425.234899	1	obsgroup
obs381	14135.849057	1	obsgroup
obs382	13719.607843	1	obsgroup
obs383	13154.913295	1	obsgroup
obs384	13082.098765	1	obsgroup
obs385	12711.377246	1	obsgroup
obs386	11648.101266	1	obsgroup
obs387	10333.975155	1	obsgroup
obs388	10076.419753	1	obsgroup
obs389	10067.870968	1	obsgroup
obs390	10075.308642	1	obsgroup
obs391	10015.424837	1	obsgroup
obs392	9915.308642	1	obsgroup
obs393	8826.936416	1	obsgroup
obs394	6537.791411	1	obsgroup
obs395	4552.849162	1	obsgroup
obs396	3126.000000	1	obsgroup
obs397	2172.189349	1	obsgroup
obs398	1401.734104	1	obsgroup
obs399	1056.600000	1	obsgroup
obs400	1026.939394	1	obsgroup
obs401	1114.497041	1	obsgroup
obs402	1390.595238	1	obsgroup
obs403	1452.515337	1	obsgroup
obs404	1359.325153	1	obsgroup
obs405	1344.863014	1	obsgroup
obs406	1204.551724	1	obsgroup
obs407	1161.830065	1	obsgroup
obs408	1108.552632	1	obsgroup
obs409	1172.955975	1	obsgroup
obs410	1244.429530	1	obsgroup
obs411	2081.560284	1	obsgroup
obs412	2416.643357	1	obsgroup
obs413	1752.037037	1	obsgroup
obs414	1419.366197	1	obsgroup
obs415	1400.617284	1	obsgroup
obs416	1307.207792	1	obsgroup
obs417	1183.594771	1	obsgroup
obs418	1100.915033	1	obsgroup
obs419	1086.948052	1	obsgroup
obs420	1089.561404	1	obsgroup
obs421	1205.083333	1	obsgroup
obs422	1221.917808	1	obsgroup
obs423	1221.590909	1	obsgroup
obs424	1542.611940	1	obsgroup
obs425	2465.975610	1	obsgroup
obs426	2127.500000	1	obsgroup
obs427	1973.473054	1	obsgroup
obs428	1843.742690	1	obsgroup
obs429	2523.579545	1	obsgroup
obs430	2508.579882	1	obsgroup
obs431	2191.802326	1	obsgroup
obs432	2039.440994	1	obsgroup
obs433	2287.865854	1	obsgroup
obs434	3690.827586	1	obsgroup
obs435	4090.178571	1	obsgroup
obs436	3154.464286	1	obsgroup
obs437	2648.133333	1	obsgroup
obs438	3054.038462	1	obsgroup
obs439	2809.072848	1	obsgroup
obs440	3531.242236	1	obsgroup
obs441	3462.847222	1	obsgroup
obs442	3090.764706	1	obsgroup
obs443	2790.609756	1	obsgroup
obs444	2575.161290	1	obsgroup
obs445	2728.245614	1	obsgroup
obs446	2916.666667	1	obsgroup
obs447	2925.065789	1	obsgroup
obs448	2911.761006	1	obsgroup
obs449	2606.809816	1	obsgroup
obs450	2594.640523	1	obsgroup
obs451	2808.137931	1	obsgroup
obs452	3272.125000	1	obsgroup
obs453	3846.863905	1	obsgroup
obs454	5455.555556	1	obsgroup
obs455	6216.594203	1	obsgroup
obs456	7589.019608	1	obsgroup
obs457	7836.900585	1	obsgroup
obs458	7612.923977	1	obsgroup
obs459	7412.909091	1	obsgroup
obs460	9177.439024	1	obsgroup
obs461	8975.253165	1	obsgroup
obs462	7937.857143	1	obsgroup
obs463	7300.318471	1	obsgroup
obs464	6463.908046	1	obsgroup
obs465	5830.233918	1	obsgroup
obs466	5939.176471	1	obsgroup
obs467	5977.228916	1	obsgroup
obs468	5722.597403	1	obsgroup
obs469	4724.012346	1	obsgroup
obs470	6325.119048	1	obsgroup
obs471	9382.613636	1	obsgroup
obs472	10527.530120	1	obsgroup
obs473	7766.158537	1	obsgroup
obs474	6134.914286	1	obsgroup
obs475	4526.280488	1	obsgroup
obs476	3793.895349	1	obsgroup
obs477	3342.088608	1	obsgroup
obs478	3074.024390	1	obsgroup
obs479	2400.462428	1	obsgroup
obs480	2920.444444	1	obsgroup
obs481	4233.333333	1	obsgroup
obs482	4131.059603	1	obsgroup
obs483	3952.242424	1	obsgroup
obs484	3686.440678	1	obsgroup
obs485	3549.281768	1	obsgroup
obs486	3397.619048	1	obsgroup
obs487	3207.291667	1	obsgroup
obs488	3201.979167	1	obsgroup
obs489	3049.610390	1	obsgroup
obs490	2729.693252	1	obsgroup
obs491	2900.426829	1	obsgroup
obs492	3016.265060	1	obsgroup
obs493	3119.562500	1	obsgroup
obs494	3205.269461	1	obsgroup
obs495	3100.986842	1	obsgroup
obs496	2997.812500	1	obsgroup
obs497	3521.250000	1	obsgroup
obs498	4462.916667	1	obsgroup
obs499	5695.208333	1	obsgroup
obs500	5760.520833	1	obsgroup
obs501	5949.375000	1	obsgroup
obs502	4478.129032	1	obsgroup
obs503	2941.151079	1	obsgroup
obs504	1877.124183	1	obsgroup
obs505	1625.131579	1	obsgroup
obs506	1709.490446	1	obsgroup
obs507	1828.333333	1	obsgroup
obs508	2163.012821	1	obsgroup
obs509	2221.241830	1	obsgroup
obs510	2903.035714	1	obsgroup
obs511	4071.893491	1	obsgroup
obs512	4425.364238	1	obsgroup
obs513	4426.558442	1	obsgroup
obs514	4537.828571	1	obsgroup
obs515	4292.631579	1	obsgroup
obs516	4527.528736	1	obsgroup
obs517	4725.939394	1	obsgroup
obs518	4361.125000	1	obsgroup
obs519	4273.181818	1	obsgroup
obs520	3893.767123	1	obsgroup
obs521	3723.937500	1	obsgroup
obs522	4152.307692	1	obsgroup
obs523	3614.135802	1	obsgroup
obs524	2654.713376	1	obsgroup
obs525	2427.975460	1	obsgroup
obs526	1949.411765	1	obsgroup
obs527	1453.526012	1	obsgroup
obs528	1511.627907	1	obsgroup
obs529	1528.070175	1	obsgroup
obs530	1494.096386	1	obsgroup
obs531	1475.370370	1	obsgroup
obs532	1431.818182	1	obsgroup
obs533	1439.729730	1	obsgroup
obs534	1434.785276	1	obsgroup
obs535	1447.515152	1	obsgroup
obs536	1433.246753	1	obsgroup
obs537	1722.594937	1	obsgroup
obs538	1884.154930	1	obsgroup
obs539	1996.582278	1	obsgroup
obs540	1969.562500	1	obsgroup
obs541	1931.987179	1	obsgroup
obs542	1768.750000	1	obsgroup
obs543	1610.943396	1	obsgroup
obs544	1539.047619	1	obsgroup
obs545	1311.258278	1	obsgroup
obs546	1351.194969	1	obsgroup
obs547	1143.771812	1	obsgroup
obs548	879.476510	1	obsgroup
obs549	807.865385	1	obsgroup
obs550	835.459459	1	obsgroup
obs551	931.142857	1	obsgroup
obs552	917.129032	1	obsgroup
obs553	848.738255	1	obsgroup
obs554	781.535032	1	obsgroup
obs555	775.316901	1	obsgroup
obs556	771.460000	1	obsgroup
obs557	766.924051	1	obsgroup
obs558	804.462500	1	obsgroup
obs559	804.572368	1	obsgroup
obs560	798.367347	1	obsgroup
obs561	753.462069	1	obsgroup
obs562	761.795082	1	obsgroup
obs563	792.833333	1	obsgroup
obs564	792.883117	1	obsgroup
obs565	840.802817	1	obsgroup
obs566	839.951220	1	obsgroup
obs567	803.906667	1	obsgroup
obs568	793.802632	1	obsgroup
obs569	806.305732	1	obsgroup
obs570	795.905660	1	obsgroup
obs571	786.711538	1	obsgroup
obs572	787.205479	1	obsgroup
obs573	795.261745	1	obsgroup
obs574	795.400000	1	obsgroup
obs575	796.647059	1	obsgroup
obs576	795.171053	1	obsgroup
obs577	792.827338	1	obsgroup
obs578	803.963964	1	obsgroup
obs579	811.517007	1	obsgroup
obs580	796.388158	1	obsgroup
obs581	792.533333	1	obsgroup
obs582	793.422222	1	obsgroup
obs583	794.149254	1	obsgroup
obs584	801.492857	1	obsgroup
obs585	803.114286	1	obsgroup
obs586	814.067568	1	obsgroup
obs587	820.578571	1	obsgroup
obs588	857.604317	1	obsgroup
obs589	877.496503	1	obsgroup
obs590	920.037736	1	obsgroup
obs591	916.628866	1	obsgroup
obs592	855.888060	1	obsgroup
obs593	818.566879	1	obsgroup
obs594	820.560811	1	obsgroup
obs595	813.545455	1	obsgroup
obs596	811.865385	1	obsgroup
obs597	812.468531	1	obsgroup
obs598	814.414966	1	obsgroup
obs599	808.410959	1	obsgroup
obs600	809.731544	1	obsgroup
obs601	804.815603	1	obsgroup
obs602	802.885350	1	obsgroup
obs603	808.768707	1	obsgroup
obs604	806.348993	1	obsgroup
obs605	807.892857	1	obsgroup
obs606	807.553191	1	obsgroup
obs607	813.612903	1	obsgroup
obs608	818.474359	1	obsgroup
obs609	1406.139241	1	obsgroup
obs610	1445.437500	1	obsgroup
obs611	1468.609272	1	obsgroup
obs612	1459.013158	1	obsgroup
obs613	1427.464789	1	obsgroup
obs614	1425.492958	1	obsgroup
obs615	1422.435897	1	obsgroup
obs616	1427.577640	1	obsgroup
obs617	1448.000000	1	obsgroup
obs618	1454.779874	1	obsgroup
obs619	1449.722222	1	obsgroup
obs620	1454.394904	1	obsgroup
obs621	1463.987342	1	obsgroup
obs622	1467.876712	1	obsgroup
obs623	1474.038462	1	obsgroup
obs624	1486.729560	1	obsgroup
obs625	1551.702128	1	obsgroup
obs626	1549.310345	1	obsgroup
obs627	1617.808219	1	obsgroup
obs628	1603.907285	1	obsgroup
obs629	1599.103448	1	obsgroup
obs630	1603.562500	1	obsgroup
obs631	1574.189189	1	obsgroup
obs632	1585.281690	1	obsgroup
obs633	1595.957447	1	obsgroup
obs634	1594.411765	1	obsgroup
obs635	1587.105263	1	obsgroup
obs636	1608.435374	1	obsgroup
obs637	1636.666667	1	obsgroup
obs638	1819.858156	1	obsgroup
obs639	1965.909091	1	obsgroup
obs640	1963.395062	1	obsgroup
obs641	1958.227848	1	obsgroup
obs642	1958.758621	1	obsgroup
obs643	1965.539568	1	obsgroup
obs644	2002.292994	1	obsgroup
obs645	1975.960265	1	obsgroup
obs646	1941.180124	1	obsgroup
obs647	1929.281046	1	obsgroup
obs648	1953.513514	1	obsgroup
obs649	2020.516129	1	obsgroup
obs650	2056.451613	1	obsgroup
obs651	1940.758621	1	obsgroup
obs652	1913.194444	1	obsgroup
obs653	1920.563380	1	obsgroup
obs654	1806.466667	1	obsgroup
obs655	1672.765957	1	obsgroup
obs656	1655.779221	1	obsgroup
obs657	1647.000000	1	obsgroup
obs658	1642.928571	1	obsgroup
obs659	1675.611511	1	obsgroup
obs660	1756.474820	1	obsgroup
obs661	1831.870504	1	obsgroup
obs662	1897.753623	1	obsgroup
obs663	1864.583333	1	obsgroup
obs664	1842.695035	1	obsgroup
obs665	1838.068966	1	obsgroup
obs666	1843.112583	1	obsgroup
obs667	1856.800000	1	obsgroup
obs668	1641.889764	1	obsgroup
obs669	1479.436620	1	obsgroup
obs670	1465.562914	1	obsgroup
obs671	1455.333333	1	obsgroup
obs672	1467.346939	1	obsgroup
obs673	1461.849315	1	obsgroup
obs674	1452.377622	1	obsgroup
obs675	1431.428571	1	obsgroup
obs676	1308.410596	1	obsgroup
obs677	1178.079470	1	obsgroup
obs678	1148.979592	1	obsgroup
obs679	1133.716216	1	obsgroup
obs680	1139.933333	1	obsgroup
obs681	1140.324675	1	obsgroup
obs682	1174.402516	1	obsgroup
obs683	1201.390728	1	obsgroup
obs684	1265.000000	1	obsgroup
obs685	1243.802817	1	obsgroup
obs686	2023.529412	1	obsgroup
obs687	2560.298507	1	obsgroup
obs688	2388.750000	1	obsgroup
obs689	2046.190476	1	obsgroup
obs690	2011.811594	1	obsgroup
obs691	3998.028169	1	obsgroup
obs692	4491.800000	1	obsgroup
obs693	4271.678832	1	obsgroup
obs694	4073.831169	1	obsgroup
obs695	3680.331126	1	obsgroup
obs696	3438.552632	1	obsgroup
obs697	3473.225806	1	obsgroup
obs698	3270.927152	1	obsgroup
obs699	2748.701299	1	obsgroup
obs700	1843.267974	1	obsgroup
obs701	1835.612903	1	obsgroup
obs702	2032.000000	1	obsgroup
obs703	2173.000000	1	obsgroup
obs704	2071.095890	1	obsgroup
obs705	1795.761589	1	obsgroup
obs706	1424.569536	1	obsgroup
obs707	1697.423313	1	obsgroup
obs708	2706.578947	1	obsgroup
obs709	2916.666667	1	obsgroup
obs710	2798.439716	1	obsgroup
obs711	2705.357143	1	obsgroup
obs712	2437.291667	1	obsgroup
obs713	2434.657534	1	obsgroup
obs714	2486.438356	1	obsgroup
obs715	1912.624113	1	obsgroup
obs716	1566.944444	1	obsgroup
obs717	1585.973154	1	obsgroup
obs718	1597.763158	1	obsgroup
obs719	1690.134228	1	obsgroup
obs720	1739.060403	1	obsgroup
obs721	1728.741722	1	obsgroup
obs722	1616.917808	1	obsgroup
obs723	1573.974359	1	obsgroup
obs724	1564.125874	1	obsgroup
obs725	1657.922078	1	obsgroup
obs726	1705.000000	1	obsgroup
obs727	4540.000000	1	obsgroup
obs728	10695.857143	1	obsgroup
obs729	12215.789474	1	obsgroup
obs730	11279.020979	1	obsgroup
obs731	10633.333333	1	obsgroup
obs732	10395.862069	1	obsgroup
obs733	10320.000000	1	obsgroup
obs734	8960.544218	1	obsgroup
obs735	7999.451220	1	obsgroup
obs736	7098.452381	1	obsgroup
obs737	5738.875000	1	obsgroup
obs738	4076.953642	1	obsgroup
obs739	2846.913580	1	obsgroup
obs740	2563.205128	1	obsgroup
obs741	2534.452055	1	obsgroup
obs742	2631.768707	1	obsgroup
obs743	2683.513514	1	obsgroup
obs744	2684.748201	1	obsgroup
obs745	2724.460432	1	obsgroup
obs746	2715.281690	1	obsgroup
obs747	2744.812030	1	obsgroup
obs748	5013.362069	1	obsgroup
obs749	13342.241379	1	obsgroup
obs750	11857.291667	1	obsgroup
obs751	11869.791667	1	obsgroup
obs752	11212.500000	1	obsgroup
obs753	11645.962733	1	obsgroup
obs754	12931.617647	1	obsgroup
obs755	13881.208054	1	obsgroup
obs756	13381.456954	1	obsgroup
obs757	12904.729730	1	obsgroup
obs758	12662.068966	1	obsgroup
obs759	12473.170732	1	obsgroup
obs760	12540.140845	1	obsgroup
obs761	12240.666667	1	obsgroup
obs762	11879.285714	1	obsgroup
obs763	11130.405405	1	obsgroup
obs764	10375.167785	1	obsgroup
obs765	10147.972028	1	obsgroup
obs766	9977.027027	1	obsgroup
obs767	9553.356643	1	obsgroup
obs768	7938.657718	1	obsgroup
obs769	5876.549296	1	obsgroup
obs770	4441.513158	1	obsgroup
obs771	3066.709677	1	obsgroup
obs772	2114.527027	1	obsgroup
obs773	2120.069444	1	obsgroup
obs774	2106.709677	1	obsgroup
obs775	1610.000000	1	obsgroup
obs776	1544.266667	1	obsgroup
obs777	1566.180556	1	obsgroup
obs778	1645.066667	1	obsgroup
obs779	1709.520548	1	obsgroup
obs780	1697.484277	1	obsgroup
obs781	1727.600000	1	obsgroup
obs782	2682.857143	1	obsgroup
obs783	4506.428571	1	obsgroup
obs784	4367.323944	1	obsgroup
obs785	3036.458333	1	obsgroup
obs786	2562.258065	1	obsgroup
obs787	2021.006711	1	obsgroup
obs788	1752.971014	1	obsgroup
obs789	1542.539683	1	obsgroup
obs790	1597.941176	1	obsgroup
obs791	1497.804878	1	obsgroup
obs792	1213.984962	1	obsgroup
obs793	1028.068966	1	obsgroup
obs794	1277.299270	1	obsgroup
obs795	1677.410072	1	obsgroup
obs796	1822.538462	1	obsgroup
obs797	1429.533333	1	obsgroup
obs798	1273.605442	1	obsgroup
obs799	1546.666667	1	obsgroup
obs800	2301.513158	1	obsgroup
obs801	3785.762712	1	obsgroup
obs802	4737.521368	1	obsgroup
obs803	5326.391753	1	obsgroup
obs804	5427.422680	1	obsgroup
obs805	7333.854167	1	obsgroup
obs806	9117.244898	1	obsgroup
obs807	8110.866667	1	obsgroup
obs808	7425.477707	1	obsgroup
obs809	7012.600000	1	obsgroup
obs810	8716.971831	1	obsgroup
obs811	10966.153846	1	obsgroup
obs812	11253.508772	1	obsgroup
obs813	9386.341463	1	obsgroup
obs814	7131.144578	1	obsgroup
obs815	6467.730496	1	obsgroup
obs816	6774.675325	1	obsgroup
obs817	7403.630137	1	obsgroup
obs818	8332.464789	1	obsgroup
obs819	11434.027778	1	obsgroup
obs820	13254.362416	1	obsgroup
obs821	12268.531469	1	obsgroup
obs822	11439.597315	1	obsgroup
obs823	10871.337580	1	obsgroup
obs824	10432.515337	1	obsgroup
obs825	10372.784810	1	obsgroup
obs826	9184.363636	1	obsgroup
obs827	6482.025316	1	obsgroup
obs828	4085.276074	1	obsgroup
obs829	2666.052632	1	obsgroup
obs830	2650.000000	1	obsgroup
obs831	2902.564103	1	obsgroup
obs832	3114.522293	1	obsgroup
obs833	3067.692308	1	obsgroup
obs834	3089.770992	1	obsgroup
obs835	2754.067797	1	obsgroup
obs836	2622.941176	1	obsgroup
obs837	3634.500000	1	obsgroup
obs838	5740.993789	1	obsgroup
obs839	5698.050314	1	obsgroup
obs840	6371.250000	1	obsgroup
obs841	7841.006289	1	obsgroup
obs842	6054.687500	1	obsgroup
obs843	6129.664430	1	obsgroup
obs844	5570.279720	1	obsgroup
obs845	6821.455696	1	obsgroup
obs846	7506.818182	1	obsgroup
obs847	8575.686275	1	obsgroup
obs848	7404.411765	1	obsgroup
obs849	5083.260870	1	obsgroup
obs850	4053.719512	1	obsgroup
obs851	4435.918367	1	obsgroup
obs852	8131.910828	1	obsgroup
obs853	7943.437500	1	obsgroup
obs854	6823.525180	1	obsgroup
obs855	6435.448276	1	obsgroup
obs856	6503.216783	1	obsgroup
obs857	5594.671053	1	obsgroup
obs858	4352.993631	1	obsgroup
obs859	4156.733333	1	obsgroup
obs860	3642.592593	1	obsgroup
obs861	2561.972789	1	obsgroup
obs862	1803.400000	1	obsgroup
obs863	1722.516129	1	obsgroup
obs864	1708.076923	1	obsgroup
obs865	1827.615894	1	obsgroup
obs866	1696.500000	1	obsgroup
obs867	1700.492958	1	obsgroup
obs868	1817.391304	1	obsgroup
obs869	1650.902778	1	obsgroup
obs870	1540.576923	1	obsgroup
obs871	1196.357616	1	obsgroup
obs872	1438.466667	1	obsgroup
obs873	2158.235294	1	obsgroup
obs874	2099.735450	1	obsgroup
obs875	2064.411765	1	obsgroup
obs876	3051.768707	1	obsgroup
obs877	3558.522727	1	obsgroup
obs878	2671.555556	1	obsgroup
obs879	2535.628743	1	obsgroup
obs880	2353.125000	1	obsgroup
obs881	1863.933333	1	obsgroup
obs882	1430.359712	1	obsgroup
obs883	1319.395973	1	obsgroup
obs884	1473.081761	1	obsgroup
obs885	1359.418605	1	obsgroup
obs886	1736.573427	1	obsgroup
obs887	5010.000000	1	obsgroup
obs888	4384.375000	1	obsgroup
obs889	4082.824427	1	obsgroup
obs890	3306.481481	1	obsgroup
obs891	4380.800000	1	obsgroup
obs892	4470.316456	1	obsgroup
obs893	3318.598726	1	obsgroup
obs894	2546.666667	1	obsgroup
obs895	2480.928571	1	obsgroup
obs896	2045.000000	1	obsgroup
obs897	1868.652482	1	obsgroup
obs898	2185.144928	1	obsgroup
obs899	1898.043478	1	obsgroup
obs900	1454.666667	1	obsgroup
obs901	1456.376812	1	obsgroup
obs902	1632.132353	1	obsgroup
obs903	1447.092199	1	obsgroup
obs904	1575.231788	1	obsgroup
obs905	1767.133758	1	obsgroup
obs906	1642.784810	1	obsgroup
obs907	1422.266667	1	obsgroup
obs908	1398.424658	1	obsgroup
obs909	1411.686747	1	obsgroup
obs910	1444.934211	1	obsgroup
obs911	1603.138686	1	obsgroup
obs912	1356.164384	1	obsgroup
obs913	1221.059603	1	obsgroup
obs914	1148.193548	1	obsgroup
obs915	1088.157895	1	obsgroup
obs916	1086.770186	1	obsgroup
obs917	1183.642384	1	obsgroup