pcf
* control data
restart  estimation
    8  3287     8     0     1
    1     1 single point   1   0   0
  5.0   2.0   0.3  0.03    10  999  lamforgive  derforgive
  3.0   3.0 0.001  0
  0.1
   30  0.01     3     3  0.01     3
    1     1     1     1
* parameter groups
fc           relative 0.01  0.0  switch  2.0 parabolic
beta         relative 0.01  0.0  switch  2.0 parabolic
perc         relative 0.01  0.0  switch  2.0 parabolic
uzl          relative 0.01  0.0  switch  2.0 parabolic
k0           relative 0.01  0.0  switch  2.0 parabolic
k1           relative 0.01  0.0  switch  2.0 parabolic
k2           relative 0.01  0.0  switch  2.0 parabolic
et_mult      relative 0.01  0.0  switch  2.0 parabolic
* parameter data
fc           none relative   191.49       50.000000  600.000000      fc              1.0000        0.0000      1
beta         none relative   2.244        1.000000    6.000000       beta            1.0000        0.0000      1
perc         none relative   0.191        0.000100    0.500000       perc            1.0000        0.0000      1
uzl          none relative   1.365        0.100000   75.000000       uzl             1.0000        0.0000      1
k0           none relative   0.534        0.050000    0.700000       k0              1.0000        0.0000      1
k1           none relative   0.279        0.010000    0.400000       k1              1.0000        0.0000      1
k2           none relative   0.061	  0.000100    0.150000       k2              1.0000        0.0000      1
et_mult      none relative   1            0.100000    10.00000       et_mult         1.0000        0.0000      1
* observation groups
obsgroup
* observation data
obs1	7563.854167	1	obsgroup
obs2	8209.583333	1	obsgroup
obs3	7379.270833	1	obsgroup
obs4	5892.291667	1	obsgroup
obs5	7870.833333	1	obsgroup
obs6	10351.666667	1	obsgroup
obs7	10430.208333	1	obsgroup
obs8	9974.062500	1	obsgroup
obs9	9295.833333	1	obsgroup
obs10	8754.062500	1	obsgroup
obs11	7292.187500	1	obsgroup
obs12	6767.083333	1	obsgroup
obs13	6879.479167	1	obsgroup
obs14	5681.770833	1	obsgroup
obs15	4395.312500	1	obsgroup
obs16	3826.770833	1	obsgroup
obs17	4129.895833	1	obsgroup
obs18	4168.854167	1	obsgroup
obs19	3821.354167	1	obsgroup
obs20	3479.479167	1	obsgroup
obs21	3297.083333	1	obsgroup
obs22	2738.854167	1	obsgroup
obs23	2632.395833	1	obsgroup
obs24	2627.187500	1	obsgroup
obs25	2817.187500	1	obsgroup
obs26	2760.937500	1	obsgroup
obs27	2499.687500	1	obsgroup
obs28	2359.062500	1	obsgroup
obs29	2217.708333	1	obsgroup
obs30	2095.520833	1	obsgroup
obs31	2094.895833	1	obsgroup
obs32	2113.125000	1	obsgroup
obs33	2182.083333	1	obsgroup
obs34	2174.687500	1	obsgroup
obs35	2291.979167	1	obsgroup
obs36	2326.875000	1	obsgroup
obs37	1985.833333	1	obsgroup
obs38	1616.875000	1	obsgroup
obs39	1397.500000	1	obsgroup
obs40	1372.604167	1	obsgroup
obs41	1237.291667	1	obsgroup
obs42	1134.270833	1	obsgroup
obs43	1322.916667	1	obsgroup
obs44	1316.770833	1	obsgroup
obs45	1299.479167	1	obsgroup
obs46	1282.708333	1	obsgroup
obs47	1352.187500	1	obsgroup
obs48	1313.750000	1	obsgroup
obs49	1258.958333	1	obsgroup
obs50	1193.020833	1	obsgroup
obs51	1106.666667	1	obsgroup
obs52	1070.000000	1	obsgroup
obs53	1051.562500	1	obsgroup
obs54	1052.812500	1	obsgroup
obs55	1115.937500	1	obsgroup
obs56	1144.375000	1	obsgroup
obs57	1183.437500	1	obsgroup
obs58	1180.312500	1	obsgroup
obs59	1121.666667	1	obsgroup
obs60	1083.541667	1	obsgroup
obs61	1265.625000	1	obsgroup
obs62	1048.750000	1	obsgroup
obs63	1063.437500	1	obsgroup
obs64	1043.020833	1	obsgroup
obs65	1040.000000	1	obsgroup
obs66	1030.625000	1	obsgroup
obs67	1060.625000	1	obsgroup
obs68	1036.875000	1	obsgroup
obs69	1030.520833	1	obsgroup
obs70	1040.937500	1	obsgroup
obs71	1421.562500	1	obsgroup
obs72	1505.729167	1	obsgroup
obs73	1346.521739	1	obsgroup
obs74	1263.229167	1	obsgroup
obs75	1215.625000	1	obsgroup
obs76	1294.687500	1	obsgroup
obs77	1242.395833	1	obsgroup
obs78	1230.104167	1	obsgroup
obs79	1205.833333	1	obsgroup
obs80	1260.937500	1	obsgroup
obs81	1258.541667	1	obsgroup
obs82	1222.916667	1	obsgroup
obs83	1217.604167	1	obsgroup
obs84	1286.145833	1	obsgroup
obs85	1655.729167	1	obsgroup
obs86	1475.833333	1	obsgroup
obs87	1426.979167	1	obsgroup
obs88	4743.020833	1	obsgroup
obs89	8415.520833	1	obsgroup
obs90	5784.895833	1	obsgroup
obs91	5423.541667	1	obsgroup
obs92	6313.958333	1	obsgroup
obs93	5980.000000	1	obsgroup
obs94	5291.250000	1	obsgroup
obs95	4533.541667	1	obsgroup
obs96	4112.916667	1	obsgroup
obs97	4191.979167	1	obsgroup
obs98	4764.166667	1	obsgroup
obs99	5007.604167	1	obsgroup
obs100	4503.020833	1	obsgroup
obs101	3579.062500	1	obsgroup
obs102	2962.604167	1	obsgroup
obs103	2821.458333	1	obsgroup
obs104	3403.854167	1	obsgroup
obs105	3933.541667	1	obsgroup
obs106	3682.604167	1	obsgroup
obs107	2994.375000	1	obsgroup
obs108	3020.208333	1	obsgroup
obs109	2817.812500	1	obsgroup
obs110	3586.041667	1	obsgroup
obs111	4769.895833	1	obsgroup
obs112	4661.979167	1	obsgroup
obs113	3871.521739	1	obsgroup
obs114	3722.291667	1	obsgroup
obs115	3085.000000	1	obsgroup
obs116	3304.687500	1	obsgroup
obs117	4821.145833	1	obsgroup
obs118	5582.708333	1	obsgroup
obs119	5595.312500	1	obsgroup
obs120	5731.354167	1	obsgroup
obs121	4854.270833	1	obsgroup
obs122	4497.604167	1	obsgroup
obs123	4759.166667	1	obsgroup
obs124	6148.586957	1	obsgroup
obs125	6143.958333	1	obsgroup
obs126	5245.937500	1	obsgroup
obs127	3764.062500	1	obsgroup
obs128	3378.333333	1	obsgroup
obs129	3067.604167	1	obsgroup
obs130	3109.375000	1	obsgroup
obs131	3026.354167	1	obsgroup
obs132	3241.875000	1	obsgroup
obs133	2963.020833	1	obsgroup
obs134	3026.875000	1	obsgroup
obs135	2813.750000	1	obsgroup
obs136	2443.333333	1	obsgroup
obs137	2400.000000	1	obsgroup
obs138	2446.562500	1	obsgroup
obs139	2602.291667	1	obsgroup
obs140	2390.416667	1	obsgroup
obs141	1875.520833	1	obsgroup
obs142	1859.895833	1	obsgroup
obs143	1893.541667	1	obsgroup
obs144	1876.250000	1	obsgroup
obs145	1820.000000	1	obsgroup
obs146	2442.916667	1	obsgroup
obs147	3850.416667	1	obsgroup
obs148	3581.145833	1	obsgroup
obs149	3166.770833	1	obsgroup
obs150	2880.520833	1	obsgroup
obs151	3056.041667	1	obsgroup
obs152	3568.958333	1	obsgroup
obs153	8848.125000	1	obsgroup
obs154	14700.000000	1	obsgroup
obs155	15011.458333	1	obsgroup
obs156	13720.833333	1	obsgroup
obs157	10256.041667	1	obsgroup
obs158	7441.458333	1	obsgroup
obs159	6156.979167	1	obsgroup
obs160	5948.854167	1	obsgroup
obs161	5978.750000	1	obsgroup
obs162	5837.395833	1	obsgroup
obs163	5258.333333	1	obsgroup
obs164	4539.166667	1	obsgroup
obs165	4361.354167	1	obsgroup
obs166	4023.541667	1	obsgroup
obs167	2988.125000	1	obsgroup
obs168	2722.604167	1	obsgroup
obs169	2555.000000	1	obsgroup
obs170	2284.375000	1	obsgroup
obs171	2066.354167	1	obsgroup
obs172	1866.458333	1	obsgroup
obs173	1725.312500	1	obsgroup
obs174	1491.770833	1	obsgroup
obs175	1306.666667	1	obsgroup
obs176	1261.354167	1	obsgroup
obs177	1253.750000	1	obsgroup
obs178	1235.729167	1	obsgroup
obs179	1213.958333	1	obsgroup
obs180	1201.458333	1	obsgroup
obs181	1200.000000	1	obsgroup
obs182	1200.000000	1	obsgroup
obs183	1205.000000	1	obsgroup
obs184	1202.395833	1	obsgroup
obs185	1199.062500	1	obsgroup
obs186	1190.000000	1	obsgroup
obs187	1181.354167	1	obsgroup
obs188	1180.000000	1	obsgroup
obs189	1180.000000	1	obsgroup
obs190	1181.770833	1	obsgroup
obs191	1166.041667	1	obsgroup
obs192	1143.750000	1	obsgroup
obs193	1350.312500	1	obsgroup
obs194	1496.145833	1	obsgroup
obs195	1497.282609	1	obsgroup
obs196	1492.395833	1	obsgroup
obs197	1487.395833	1	obsgroup
obs198	1484.895833	1	obsgroup
obs199	1485.000000	1	obsgroup
obs200	1485.937500	1	obsgroup
obs201	1485.520833	1	obsgroup
obs202	1484.166667	1	obsgroup
obs203	1481.562500	1	obsgroup
obs204	1481.875000	1	obsgroup
obs205	1477.500000	1	obsgroup
obs206	1476.770833	1	obsgroup
obs207	1476.354167	1	obsgroup
obs208	1474.791667	1	obsgroup
obs209	1476.145833	1	obsgroup
obs210	1482.812500	1	obsgroup
obs211	1503.854167	1	obsgroup
obs212	1417.391304	1	obsgroup
obs213	1430.625000	1	obsgroup
obs214	1425.416667	1	obsgroup
obs215	1361.489362	1	obsgroup
obs216	1032.572917	1	obsgroup
obs217	808.958333	1	obsgroup
obs218	779.604167	1	obsgroup
obs219	799.083333	1	obsgroup
obs220	798.708333	1	obsgroup
obs221	794.072917	1	obsgroup
obs222	1066.187500	1	obsgroup
obs223	844.906250	1	obsgroup
obs224	790.697917	1	obsgroup
obs225	792.062500	1	obsgroup
obs226	777.937500	1	obsgroup
obs227	781.583333	1	obsgroup
obs228	1063.604167	1	obsgroup
obs229	1256.979167	1	obsgroup
obs230	845.000000	1	obsgroup
obs231	797.343750	1	obsgroup
obs232	811.041667	1	obsgroup
obs233	822.041667	1	obsgroup
obs234	811.843750	1	obsgroup
obs235	819.187500	1	obsgroup
obs236	815.104167	1	obsgroup
obs237	828.760417	1	obsgroup
obs238	826.416667	1	obsgroup
obs239	809.052083	1	obsgroup
obs240	816.552083	1	obsgroup
obs241	835.500000	1	obsgroup
obs242	845.447917	1	obsgroup
obs243	851.978261	1	obsgroup
obs244	818.572917	1	obsgroup
obs245	826.562500	1	obsgroup
obs246	836.343750	1	obsgroup
obs247	839.531250	1	obsgroup
obs248	844.083333	1	obsgroup
obs249	844.760417	1	obsgroup
obs250	884.635417	1	obsgroup
obs251	1006.729167	1	obsgroup
obs252	1123.229167	1	obsgroup
obs253	1191.458333	1	obsgroup
obs254	1214.791667	1	obsgroup
obs255	1239.375000	1	obsgroup
obs256	1288.958333	1	obsgroup
obs257	1433.125000	1	obsgroup
obs258	1518.437500	1	obsgroup
obs259	1515.520833	1	obsgroup
obs260	1520.625000	1	obsgroup
obs261	1547.916667	1	obsgroup
obs262	1626.458333	1	obsgroup
obs263	1658.333333	1	obsgroup
obs264	1578.645833	1	obsgroup
obs265	1550.833333	1	obsgroup
obs266	1533.958333	1	obsgroup
obs267	1529.062500	1	obsgroup
obs268	1523.229167	1	obsgroup
obs269	1542.395833	1	obsgroup
obs270	1542.604167	1	obsgroup
obs271	1545.208333	1	obsgroup
obs272	1540.208333	1	obsgroup
obs273	1537.083333	1	obsgroup
obs274	1553.645833	1	obsgroup
obs275	1525.312500	1	obsgroup
obs276	1521.041667	1	obsgroup
obs277	1553.020833	1	obsgroup
obs278	1544.375000	1	obsgroup
obs279	1517.708333	1	obsgroup
obs280	1561.145833	1	obsgroup
obs281	1547.916667	1	obsgroup
obs282	1582.291667	1	obsgroup
obs283	1619.479167	1	obsgroup
obs284	1623.125000	1	obsgroup
obs285	1580.833333	1	obsgroup
obs286	1581.979167	1	obsgroup
obs287	1516.875000	1	obsgroup
obs288	1508.020833	1	obsgroup
obs289	1346.562500	1	obsgroup
obs290	1135.208333	1	obsgroup
obs291	1120.000000	1	obsgroup
obs292	1116.562500	1	obsgroup
obs293	1110.000000	1	obsgroup
obs294	1086.979167	1	obsgroup
obs295	1373.020833	1	obsgroup
obs296	2202.812500	1	obsgroup
obs297	2344.895833	1	obsgroup
obs298	2894.375000	1	obsgroup
obs299	3120.729167	1	obsgroup
obs300	2637.812500	1	obsgroup
obs301	2488.958333	1	obsgroup
obs302	2453.541667	1	obsgroup
obs303	2379.479167	1	obsgroup
obs304	2461.041667	1	obsgroup
obs305	2427.916667	1	obsgroup
obs306	3079.062500	1	obsgroup
obs307	3127.916667	1	obsgroup
obs308	3437.187500	1	obsgroup
obs309	3420.937500	1	obsgroup
obs310	3396.304348	1	obsgroup
obs311	3789.900000	1	obsgroup
obs312	4487.291667	1	obsgroup
obs313	5991.979167	1	obsgroup
obs314	6101.250000	1	obsgroup
obs315	4793.437500	1	obsgroup
obs316	4166.041667	1	obsgroup
obs317	3901.250000	1	obsgroup
obs318	3942.916667	1	obsgroup
obs319	4172.187500	1	obsgroup
obs320	4449.479167	1	obsgroup
obs321	4636.250000	1	obsgroup
obs322	6750.208333	1	obsgroup
obs323	6311.666667	1	obsgroup
obs324	5759.479167	1	obsgroup
obs325	5654.687500	1	obsgroup
obs326	5842.916667	1	obsgroup
obs327	6913.854167	1	obsgroup
obs328	6756.458333	1	obsgroup
obs329	6525.625000	1	obsgroup
obs330	6352.604167	1	obsgroup
obs331	6736.145833	1	obsgroup
obs332	6760.729167	1	obsgroup
obs333	6640.729167	1	obsgroup
obs334	7001.458333	1	obsgroup
obs335	9815.104167	1	obsgroup
obs336	10012.395833	1	obsgroup
obs337	9214.791667	1	obsgroup
obs338	7729.687500	1	obsgroup
obs339	7021.979167	1	obsgroup
obs340	7022.812500	1	obsgroup
obs341	6573.958333	1	obsgroup
obs342	6807.291667	1	obsgroup
obs343	7543.695652	1	obsgroup
obs344	9173.260870	1	obsgroup
obs345	9362.500000	1	obsgroup
obs346	11386.458333	1	obsgroup
obs347	12969.791667	1	obsgroup
obs348	14458.333333	1	obsgroup
obs349	13283.333333	1	obsgroup
obs350	12847.916667	1	obsgroup
obs351	12596.739130	1	obsgroup
obs352	12607.291667	1	obsgroup
obs353	12491.666667	1	obsgroup
obs354	12371.875000	1	obsgroup
obs355	11500.000000	1	obsgroup
obs356	9084.479167	1	obsgroup
obs357	6324.583333	1	obsgroup
obs358	4524.166667	1	obsgroup
obs359	2652.812500	1	obsgroup
obs360	1971.562500	1	obsgroup
obs361	2147.083333	1	obsgroup
obs362	4519.347826	1	obsgroup
obs363	8981.041667	1	obsgroup
obs364	5157.916667	1	obsgroup
obs365	6103.854167	1	obsgroup
obs366	7022.916667	1	obsgroup
obs367	6678.229167	1	obsgroup
obs368	5718.541667	1	obsgroup
obs369	3584.375000	1	obsgroup
obs370	2983.437500	1	obsgroup
obs371	2057.083333	1	obsgroup
obs372	2068.125000	1	obsgroup
obs373	2330.312500	1	obsgroup
obs374	2318.125000	1	obsgroup
obs375	2922.708333	1	obsgroup
obs376	4079.791667	1	obsgroup
obs377	4902.187500	1	obsgroup
obs378	6255.000000	1	obsgroup
obs379	6709.583333	1	obsgroup
obs380	6509.583333	1	obsgroup
obs381	14725.312500	1	obsgroup
obs382	14654.166667	1	obsgroup
obs383	13598.958333	1	obsgroup
obs384	13537.500000	1	obsgroup
obs385	12971.875000	1	obsgroup
obs386	12052.083333	1	obsgroup
obs387	10582.291667	1	obsgroup
obs388	10184.375000	1	obsgroup
obs389	10150.000000	1	obsgroup
obs390	10102.083333	1	obsgroup
obs391	10031.354167	1	obsgroup
obs392	9909.062500	1	obsgroup
obs393	9086.770833	1	obsgroup
obs394	7031.237113	1	obsgroup
obs395	5123.229167	1	obsgroup
obs396	3651.979167	1	obsgroup
obs397	2505.416667	1	obsgroup
obs398	1748.541667	1	obsgroup
obs399	1243.645833	1	obsgroup
obs400	1172.812500	1	obsgroup
obs401	1241.354167	1	obsgroup
obs402	1507.187500	1	obsgroup
obs403	1608.229167	1	obsgroup
obs404	1526.979167	1	obsgroup
obs405	1500.208333	1	obsgroup
obs406	1348.333333	1	obsgroup
obs407	1273.125000	1	obsgroup
obs408	1231.770833	1	obsgroup
obs409	1311.250000	1	obsgroup
obs410	1371.041667	1	obsgroup
obs411	2759.895833	1	obsgroup
obs412	3205.520833	1	obsgroup
obs413	2288.750000	1	obsgroup
obs414	1786.875000	1	obsgroup
obs415	1696.597938	1	obsgroup
obs416	1558.645833	1	obsgroup
obs417	1424.270833	1	obsgroup
obs418	1313.854167	1	obsgroup
obs419	1292.291667	1	obsgroup
obs420	1322.291667	1	obsgroup
obs421	1381.354167	1	obsgroup
obs422	1408.437500	1	obsgroup
obs423	1386.458333	1	obsgroup
obs424	1851.875000	1	obsgroup
obs425	3577.500000	1	obsgroup
obs426	2824.791667	1	obsgroup
obs427	2524.270833	1	obsgroup
obs428	2327.916667	1	obsgroup
obs429	3137.916667	1	obsgroup
obs430	3176.979167	1	obsgroup
obs431	2657.551020	1	obsgroup
obs432	2524.479167	1	obsgroup
obs433	2704.062500	1	obsgroup
obs434	4153.645833	1	obsgroup
obs435	4936.041667	1	obsgroup
obs436	3865.104167	1	obsgroup
obs437	3204.130435	1	obsgroup
obs438	3745.520833	1	obsgroup
obs439	3426.041667	1	obsgroup
obs440	4788.750000	1	obsgroup
obs441	4670.937500	1	obsgroup
obs442	3965.000000	1	obsgroup
obs443	3562.291667	1	obsgroup
obs444	3183.645833	1	obsgroup
obs445	3253.125000	1	obsgroup
obs446	3421.752577	1	obsgroup
obs447	3401.354167	1	obsgroup
obs448	3366.250000	1	obsgroup
obs449	3080.416667	1	obsgroup
obs450	3061.562500	1	obsgroup
obs451	3293.541667	1	obsgroup
obs452	3798.958333	1	obsgroup
obs453	4543.229167	1	obsgroup
obs454	6395.520833	1	obsgroup
obs455	6476.666667	1	obsgroup
obs456	7998.750000	1	obsgroup
obs457	8281.041667	1	obsgroup
obs458	8034.062500	1	obsgroup
obs459	7733.645833	1	obsgroup
obs460	9395.104167	1	obsgroup
obs461	9469.062500	1	obsgroup
obs462	8520.312500	1	obsgroup
obs463	7855.520833	1	obsgroup
obs464	7040.208333	1	obsgroup
obs465	6348.437500	1	obsgroup
obs466	6427.916667	1	obsgroup
obs467	6408.125000	1	obsgroup
obs468	6242.395833	1	obsgroup
obs469	5208.125000	1	obsgroup
obs470	6610.520833	1	obsgroup
obs471	9487.708333	1	obsgroup
obs472	11481.770833	1	obsgroup
obs473	8493.645833	1	obsgroup
obs474	6845.104167	1	obsgroup
obs475	5237.500000	1	obsgroup
obs476	4258.854167	1	obsgroup
obs477	3895.520833	1	obsgroup
obs478	3589.166667	1	obsgroup
obs479	2832.187500	1	obsgroup
obs480	3263.854167	1	obsgroup
obs481	4679.895833	1	obsgroup
obs482	4658.437500	1	obsgroup
obs483	4469.479167	1	obsgroup
obs484	4256.354167	1	obsgroup
obs485	4081.666667	1	obsgroup
obs486	3868.437500	1	obsgroup
obs487	3621.354167	1	obsgroup
obs488	3547.500000	1	obsgroup
obs489	3453.645833	1	obsgroup
obs490	3045.833333	1	obsgroup
obs491	3164.791667	1	obsgroup
obs492	3381.458333	1	obsgroup
obs493	3478.437500	1	obsgroup
obs494	3615.416667	1	obsgroup
obs495	3466.770833	1	obsgroup
obs496	3341.250000	1	obsgroup
obs497	3837.083333	1	obsgroup
obs498	4632.500000	1	obsgroup
obs499	5920.416667	1	obsgroup
obs500	6084.270833	1	obsgroup
obs501	6237.604167	1	obsgroup
obs502	5090.208333	1	obsgroup
obs503	3470.000000	1	obsgroup
obs504	2224.270833	1	obsgroup
obs505	1783.333333	1	obsgroup
obs506	1876.562500	1	obsgroup
obs507	1935.000000	1	obsgroup
obs508	2338.541667	1	obsgroup
obs509	2409.687500	1	obsgroup
obs510	2972.812500	1	obsgroup
obs511	4288.958333	1	obsgroup
obs512	4882.916667	1	obsgroup
obs513	4833.645833	1	obsgroup
obs514	5003.229167	1	obsgroup
obs515	4692.083333	1	obsgroup
obs516	4981.458333	1	obsgroup
obs517	5306.979167	1	obsgroup
obs518	5018.144330	1	obsgroup
obs519	4751.250000	1	obsgroup
obs520	4292.500000	1	obsgroup
obs521	3987.500000	1	obsgroup
obs522	4374.479167	1	obsgroup
obs523	3985.208333	1	obsgroup
obs524	2947.395833	1	obsgroup
obs525	2668.854167	1	obsgroup
obs526	2245.312500	1	obsgroup
obs527	1639.895833	1	obsgroup
obs528	1640.000000	1	obsgroup
obs529	1710.833333	1	obsgroup
obs530	1648.659794	1	obsgroup
obs531	1623.020833	1	obsgroup
obs532	1581.041667	1	obsgroup
obs533	1577.113402	1	obsgroup
obs534	1573.125000	1	obsgroup
obs535	1584.687500	1	obsgroup
obs536	1559.895833	1	obsgroup
obs537	1765.000000	1	obsgroup
obs538	2013.645833	1	obsgroup
obs539	2120.000000	1	obsgroup
obs540	2097.500000	1	obsgroup
obs541	2072.500000	1	obsgroup
obs542	1941.979167	1	obsgroup
obs543	1714.791667	1	obsgroup
obs544	1683.333333	1	obsgroup
obs545	1410.208333	1	obsgroup
obs546	1451.562500	1	obsgroup
obs547	1298.229167	1	obsgroup
obs548	971.218750	1	obsgroup
obs549	892.093750	1	obsgroup
obs550	875.354167	1	obsgroup
obs551	970.137255	1	obsgroup
obs552	970.252632	1	obsgroup
obs553	912.083333	1	obsgroup
obs554	834.969072	1	obsgroup
obs555	824.375000	1	obsgroup
obs556	815.000000	1	obsgroup
obs557	804.708333	1	obsgroup
obs558	844.729167	1	obsgroup
obs559	848.385417	1	obsgroup
obs560	834.479167	1	obsgroup
obs561	800.947917	1	obsgroup
obs562	808.395833	1	obsgroup
obs563	855.364583	1	obsgroup
obs564	848.875000	1	obsgroup
obs565	898.010417	1	obsgroup
obs566	915.520833	1	obsgroup
obs567	855.406250	1	obsgroup
obs568	836.479167	1	obsgroup
obs569	845.260417	1	obsgroup
obs570	834.447917	1	obsgroup
obs571	822.916667	1	obsgroup
obs572	823.200000	1	obsgroup
obs573	826.354167	1	obsgroup
obs574	824.270833	1	obsgroup
obs575	825.937500	1	obsgroup
obs576	826.979167	1	obsgroup
obs577	820.729167	1	obsgroup
obs578	832.083333	1	obsgroup
obs579	840.175258	1	obsgroup
obs580	824.895833	1	obsgroup
obs581	817.083333	1	obsgroup
obs582	816.770833	1	obsgroup
obs583	818.750000	1	obsgroup
obs584	820.937500	1	obsgroup
obs585	824.479167	1	obsgroup
obs586	834.125000	1	obsgroup
obs587	837.854167	1	obsgroup
obs588	866.822917	1	obsgroup
obs589	885.822917	1	obsgroup
obs590	931.812500	1	obsgroup
obs591	936.886598	1	obsgroup
obs592	900.468750	1	obsgroup
obs593	835.135417	1	obsgroup
obs594	836.406250	1	obsgroup
obs595	835.197917	1	obsgroup
obs596	836.187500	1	obsgroup
obs597	835.000000	1	obsgroup
obs598	837.541667	1	obsgroup
obs599	830.729167	1	obsgroup
obs600	831.979167	1	obsgroup
obs601	826.875000	1	obsgroup
obs602	823.229167	1	obsgroup
obs603	830.670103	1	obsgroup
obs604	827.937500	1	obsgroup
obs605	831.645833	1	obsgroup
obs606	827.395833	1	obsgroup
obs607	837.760417	1	obsgroup
obs608	831.302083	1	obsgroup
obs609	1320.645833	1	obsgroup
obs610	1484.270833	1	obsgroup
obs611	1503.229167	1	obsgroup
obs612	1511.770833	1	obsgroup
obs613	1470.833333	1	obsgroup
obs614	1469.270833	1	obsgroup
obs615	1457.812500	1	obsgroup
obs616	1458.750000	1	obsgroup
obs617	1489.166667	1	obsgroup
obs618	1492.653061	1	obsgroup
obs619	1489.062500	1	obsgroup
obs620	1488.229167	1	obsgroup
obs621	1493.958333	1	obsgroup
obs622	1497.812500	1	obsgroup
obs623	1496.770833	1	obsgroup
obs624	1495.208333	1	obsgroup
obs625	1574.347826	1	obsgroup
obs626	1571.562500	1	obsgroup
obs627	1580.520833	1	obsgroup
obs628	1573.750000	1	obsgroup
obs629	1556.145833	1	obsgroup
obs630	1560.104167	1	obsgroup
obs631	1546.875000	1	obsgroup
obs632	1552.812500	1	obsgroup
obs633	1558.125000	1	obsgroup
obs634	1560.104167	1	obsgroup
obs635	1563.125000	1	obsgroup
obs636	1566.250000	1	obsgroup
obs637	1566.250000	1	obsgroup
obs638	1737.604167	1	obsgroup
obs639	1919.895833	1	obsgroup
obs640	1937.500000	1	obsgroup
obs641	1950.625000	1	obsgroup
obs642	1944.479167	1	obsgroup
obs643	1962.187500	1	obsgroup
obs644	1978.437500	1	obsgroup
obs645	1969.687500	1	obsgroup
obs646	1957.916667	1	obsgroup
obs647	1948.125000	1	obsgroup
obs648	1963.750000	1	obsgroup
obs649	2024.687500	1	obsgroup
obs650	2096.458333	1	obsgroup
obs651	1965.312500	1	obsgroup
obs652	1863.541667	1	obsgroup
obs653	1877.916667	1	obsgroup
obs654	1805.312500	1	obsgroup
obs655	1677.812500	1	obsgroup
obs656	1638.125000	1	obsgroup
obs657	1636.458333	1	obsgroup
obs658	1633.854167	1	obsgroup
obs659	1650.833333	1	obsgroup
obs660	1722.083333	1	obsgroup
obs661	1800.416667	1	obsgroup
obs662	1872.500000	1	obsgroup
obs663	1866.458333	1	obsgroup
obs664	1853.750000	1	obsgroup
obs665	1841.770833	1	obsgroup
obs666	1854.166667	1	obsgroup
obs667	1869.479167	1	obsgroup
obs668	1710.312500	1	obsgroup
obs669	1497.708333	1	obsgroup
obs670	1480.729167	1	obsgroup
obs671	1446.145833	1	obsgroup
obs672	1478.125000	1	obsgroup
obs673	1459.479167	1	obsgroup
obs674	1450.520833	1	obsgroup
obs675	1448.500000	1	obsgroup
obs676	1333.750000	1	obsgroup
obs677	1199.687500	1	obsgroup
obs678	1124.791667	1	obsgroup
obs679	1101.979167	1	obsgroup
obs680	1105.520833	1	obsgroup
obs681	1114.062500	1	obsgroup
obs682	1143.750000	1	obsgroup
obs683	1185.625000	1	obsgroup
obs684	1241.458333	1	obsgroup
obs685	1236.145833	1	obsgroup
obs686	1885.416667	1	obsgroup
obs687	2733.854167	1	obsgroup
obs688	2601.354167	1	obsgroup
obs689	2170.520833	1	obsgroup
obs690	2056.666667	1	obsgroup
obs691	3868.229167	1	obsgroup
obs692	4916.354167	1	obsgroup
obs693	4737.708333	1	obsgroup
obs694	4423.437500	1	obsgroup
obs695	4032.395833	1	obsgroup
obs696	3691.458333	1	obsgroup
obs697	3859.375000	1	obsgroup
obs698	3606.666667	1	obsgroup
obs699	3121.666667	1	obsgroup
obs700	2035.104167	1	obsgroup
obs701	1956.562500	1	obsgroup
obs702	2089.479167	1	obsgroup
obs703	2266.354167	1	obsgroup
obs704	2227.395833	1	obsgroup
obs705	2053.229167	1	obsgroup
obs706	1739.375000	1	obsgroup
obs707	1698.750000	1	obsgroup
obs708	2747.812500	1	obsgroup
obs709	3040.416667	1	obsgroup
obs710	2960.208333	1	obsgroup
obs711	2848.125000	1	obsgroup
obs712	2591.458333	1	obsgroup
obs713	2528.125000	1	obsgroup
obs714	2599.062500	1	obsgroup
obs715	2108.958333	1	obsgroup
obs716	1638.282828	1	obsgroup
obs717	1647.708333	1	obsgroup
obs718	1667.916667	1	obsgroup
obs719	1716.770833	1	obsgroup
obs720	1755.000000	1	obsgroup
obs721	1752.916667	1	obsgroup
obs722	1658.842105	1	obsgroup
obs723	1597.291667	1	obsgroup
obs724	1587.187500	1	obsgroup
obs725	1653.645833	1	obsgroup
obs726	1736.250000	1	obsgroup
obs727	4216.354167	1	obsgroup
obs728	11314.583333	1	obsgroup
obs729	13454.166667	1	obsgroup
obs730	12058.333333	1	obsgroup
obs731	10917.708333	1	obsgroup
obs732	10563.541667	1	obsgroup
obs733	10389.583333	1	obsgroup
obs734	9231.770833	1	obsgroup
obs735	8094.895833	1	obsgroup
obs736	7430.104167	1	obsgroup
obs737	6107.187500	1	obsgroup
obs738	4499.166667	1	obsgroup
obs739	3146.562500	1	obsgroup
obs740	2757.291667	1	obsgroup
obs741	2698.229167	1	obsgroup
obs742	2785.416667	1	obsgroup
obs743	2858.541667	1	obsgroup
obs744	2844.583333	1	obsgroup
obs745	2896.041667	1	obsgroup
obs746	2864.583333	1	obsgroup
obs747	2965.833333	1	obsgroup
obs748	4620.625000	1	obsgroup
obs749	15576.041667	1	obsgroup
obs750	13063.541667	1	obsgroup
obs751	12841.666667	1	obsgroup
obs752	11816.666667	1	obsgroup
obs753	11870.833333	1	obsgroup
obs754	13400.000000	1	obsgroup
obs755	14730.208333	1	obsgroup
obs756	14068.750000	1	obsgroup
obs757	13375.000000	1	obsgroup
obs758	12929.166667	1	obsgroup
obs759	12696.875000	1	obsgroup
obs760	12781.250000	1	obsgroup
obs761	12371.875000	1	obsgroup
obs762	11991.666667	1	obsgroup
obs763	11253.125000	1	obsgroup
obs764	10456.250000	1	obsgroup
obs765	10158.854167	1	obsgroup
obs766	9954.166667	1	obsgroup
obs767	9564.687500	1	obsgroup
obs768	8154.166667	1	obsgroup
obs769	6358.020833	1	obsgroup
obs770	4911.458333	1	obsgroup
obs771	3600.833333	1	obsgroup
obs772	2594.270833	1	obsgroup
obs773	2420.000000	1	obsgroup
obs774	2499.895833	1	obsgroup
obs775	1929.895833	1	obsgroup
obs776	1828.541667	1	obsgroup
obs777	1790.729167	1	obsgroup
obs778	1866.666667	1	obsgroup
obs779	1969.375000	1	obsgroup
obs780	1954.583333	1	obsgroup
obs781	2002.500000	1	obsgroup
obs782	2947.500000	1	obsgroup
obs783	4709.696970	1	obsgroup
obs784	5209.687500	1	obsgroup
obs785	3526.666667	1	obsgroup
obs786	3107.708333	1	obsgroup
obs787	2497.604167	1	obsgroup
obs788	2142.812500	1	obsgroup
obs789	1888.125000	1	obsgroup
obs790	2089.375000	1	obsgroup
obs791	2065.104167	1	obsgroup
obs792	1730.729167	1	obsgroup
obs793	1396.145833	1	obsgroup
obs794	1551.041667	1	obsgroup
obs795	1957.604167	1	obsgroup
obs796	2282.812500	1	obsgroup
obs797	1817.708333	1	obsgroup
obs798	1555.520833	1	obsgroup
obs799	1726.666667	1	obsgroup
obs800	2410.208333	1	obsgroup
obs801	3963.673469	1	obsgroup
obs802	5173.854167	1	obsgroup
obs803	5921.979167	1	obsgroup
obs804	6100.625000	1	obsgroup
obs805	7932.500000	1	obsgroup
obs806	10633.229167	1	obsgroup
obs807	9083.541667	1	obsgroup
obs808	8224.687500	1	obsgroup
obs809	7541.041667	1	obsgroup
obs810	8944.687500	1	obsgroup
obs811	12130.973451	1	obsgroup
obs812	12862.500000	1	obsgroup
obs813	10562.812500	1	obsgroup
obs814	8083.645833	1	obsgroup
obs815	7219.791667	1	obsgroup
obs816	7292.083333	1	obsgroup
obs817	7843.437500	1	obsgroup
obs818	8409.895833	1	obsgroup
obs819	11423.958333	1	obsgroup
obs820	14521.875000	1	obsgroup
obs821	13887.128713	1	obsgroup
obs822	12442.990654	1	obsgroup
obs823	11457.291667	1	obsgroup
obs824	10855.208333	1	obsgroup
obs825	10745.833333	1	obsgroup
obs826	9813.020833	1	obsgroup
obs827	7131.145833	1	obsgroup
obs828	4798.645833	1	obsgroup
obs829	3199.791667	1	obsgroup
obs830	3002.812500	1	obsgroup
obs831	3236.562500	1	obsgroup
obs832	3472.708333	1	obsgroup
obs833	3441.458333	1	obsgroup
obs834	3429.791667	1	obsgroup
obs835	3100.416667	1	obsgroup
obs836	2916.562500	1	obsgroup
obs837	3715.833333	1	obsgroup
obs838	5940.729167	1	obsgroup
obs839	6140.104167	1	obsgroup
obs840	6673.238095	1	obsgroup
obs841	8222.500000	1	obsgroup
obs842	6585.312500	1	obsgroup
obs843	6336.770833	1	obsgroup
obs844	5936.354167	1	obsgroup
obs845	6886.666667	1	obsgroup
obs846	7620.729167	1	obsgroup
obs847	8788.541667	1	obsgroup
obs848	7949.479167	1	obsgroup
obs849	5651.562500	1	obsgroup
obs850	4502.291667	1	obsgroup
obs851	4481.770833	1	obsgroup
obs852	8126.666667	1	obsgroup
obs853	8160.833333	1	obsgroup
obs854	7170.000000	1	obsgroup
obs855	6778.541667	1	obsgroup
obs856	6830.312500	1	obsgroup
obs857	6052.083333	1	obsgroup
obs858	4690.104167	1	obsgroup
obs859	4466.979167	1	obsgroup
obs860	3988.645833	1	obsgroup
obs861	2945.104167	1	obsgroup
obs862	2032.500000	1	obsgroup
obs863	1930.208333	1	obsgroup
obs864	1888.750000	1	obsgroup
obs865	1981.875000	1	obsgroup
obs866	1851.562500	1	obsgroup
obs867	1834.895833	1	obsgroup
obs868	1948.125000	1	obsgroup
obs869	1791.770833	1	obsgroup
obs870	1708.020833	1	obsgroup
obs871	1319.791667	1	obsgroup
obs872	1412.916667	1	obsgroup
obs873	2299.062500	1	obsgroup
obs874	2290.208333	1	obsgroup
obs875	2255.208333	1	obsgroup
obs876	3251.458333	1	obsgroup
obs877	3737.916667	1	obsgroup
obs878	2941.979167	1	obsgroup
obs879	2778.229167	1	obsgroup
obs880	2553.750000	1	obsgroup
obs881	2092.916667	1	obsgroup
obs882	1607.604167	1	obsgroup
obs883	1432.291667	1	obsgroup
obs884	1591.979167	1	obsgroup
obs885	1488.020833	1	obsgroup
obs886	1899.270833	1	obsgroup
obs887	5098.541667	1	obsgroup
obs888	4862.604167	1	obsgroup
obs889	4301.458333	1	obsgroup
obs890	3701.145833	1	obsgroup
obs891	4490.729167	1	obsgroup
obs892	4857.083333	1	obsgroup
obs893	3689.687500	1	obsgroup
obs894	2821.562500	1	obsgroup
obs895	2720.208333	1	obsgroup
obs896	2345.625000	1	obsgroup
obs897	1998.020833	1	obsgroup
obs898	2301.041667	1	obsgroup
obs899	2177.604167	1	obsgroup
obs900	1587.083333	1	obsgroup
obs901	1582.291667	1	obsgroup
obs902	1687.812500	1	obsgroup
obs903	1612.500000	1	obsgroup
obs904	1666.562500	1	obsgroup
obs905	1905.312500	1	obsgroup
obs906	1808.020833	1	obsgroup
obs907	1598.125000	1	obsgroup
obs908	1496.666667	1	obsgroup
obs909	1539.791667	1	obsgroup
obs910	1548.645833	1	obsgroup
obs911	1687.395833	1	obsgroup
obs912	1524.166667	1	obsgroup
obs913	1330.000000	1	obsgroup
obs914	1264.062500	1	obsgroup
obs915	1171.630435	1	obsgroup
obs916	1170.208333	1	obsgroup
obs917	1224.062500	1	obsgroup