pcf
* control data
restart  estimation
    8  3287     8     0     1
    1     1 single point   1   0   0
  5.0   2.0   0.3  0.03    10  999  lamforgive  derforgive
  3.0   3.0 0.001  0
  0.1
   30  0.01     3     3  0.01     3
    1     1     1     1
* parameter groups
fc           relative 0.01  0.0  switch  2.0 parabolic
beta         relative 0.01  0.0  switch  2.0 parabolic
perc         relative 0.01  0.0  switch  2.0 parabolic
uzl          relative 0.01  0.0  switch  2.0 parabolic
k0           relative 0.01  0.0  switch  2.0 parabolic
k1           relative 0.01  0.0  switch  2.0 parabolic
k2           relative 0.01  0.0  switch  2.0 parabolic
et_mult      relative 0.01  0.0  switch  2.0 parabolic
* parameter data
fc           none relative   191.49       50.000000  600.000000      fc              1.0000        0.0000      1
beta         none relative   2.244        1.000000    6.000000       beta            1.0000        0.0000      1
perc         none relative   0.191        0.000100    0.500000       perc            1.0000        0.0000      1
uzl          none relative   1.365        0.100000   75.000000       uzl             1.0000        0.0000      1
k0           none relative   0.534        0.050000    0.700000       k0              1.0000        0.0000      1
k1           none relative   0.279        0.010000    0.400000       k1              1.0000        0.0000      1
k2           none relative   0.061	  0.000100    0.150000       k2              1.0000        0.0000      1
et_mult      none relative   1            0.100000    10.00000       et_mult         1.0000        0.0000      1
* observation groups
obsgroup
* observation data
obs1	4096.694915	1	obsgroup
obs2	2647.017544	1	obsgroup
obs3	1527.881356	1	obsgroup
obs4	1182.203390	1	obsgroup
obs5	3188.135593	1	obsgroup
obs6	3463.949580	1	obsgroup
obs7	1864.102564	1	obsgroup
obs8	1217.916667	1	obsgroup
obs9	1042.135593	1	obsgroup
obs10	859.555556	1	obsgroup
obs11	706.319328	1	obsgroup
obs12	689.112245	1	obsgroup
obs13	828.240741	1	obsgroup
obs14	1016.194915	1	obsgroup
obs15	819.067797	1	obsgroup
obs16	1580.966102	1	obsgroup
obs17	1781.623932	1	obsgroup
obs18	1417.787611	1	obsgroup
obs19	1000.078261	1	obsgroup
obs20	762.033898	1	obsgroup
obs21	618.163793	1	obsgroup
obs22	536.147826	1	obsgroup
obs23	470.589744	1	obsgroup
obs24	538.769231	1	obsgroup
obs25	1110.184874	1	obsgroup
obs26	888.530435	1	obsgroup
obs27	682.172727	1	obsgroup
obs28	566.513514	1	obsgroup
obs29	492.752137	1	obsgroup
obs30	452.771186	1	obsgroup
obs31	431.052174	1	obsgroup
obs32	416.871795	1	obsgroup
obs33	470.805085	1	obsgroup
obs34	480.196581	1	obsgroup
obs35	677.426087	1	obsgroup
obs36	701.267241	1	obsgroup
obs37	605.516949	1	obsgroup
obs38	523.807018	1	obsgroup
obs39	463.466667	1	obsgroup
obs40	412.905983	1	obsgroup
obs41	383.033613	1	obsgroup
obs42	616.225225	1	obsgroup
obs43	1080.904348	1	obsgroup
obs44	916.457627	1	obsgroup
obs45	795.170940	1	obsgroup
obs46	747.448276	1	obsgroup
obs47	744.468468	1	obsgroup
obs48	698.256410	1	obsgroup
obs49	582.447368	1	obsgroup
obs50	494.701754	1	obsgroup
obs51	429.321429	1	obsgroup
obs52	374.913462	1	obsgroup
obs53	334.769912	1	obsgroup
obs54	315.919643	1	obsgroup
obs55	555.302521	1	obsgroup
obs56	776.728070	1	obsgroup
obs57	685.692982	1	obsgroup
obs58	648.504673	1	obsgroup
obs59	533.556522	1	obsgroup
obs60	453.125000	1	obsgroup
obs61	401.059829	1	obsgroup
obs62	372.359649	1	obsgroup
obs63	348.666667	1	obsgroup
obs64	318.241379	1	obsgroup
obs65	291.612069	1	obsgroup
obs66	270.191304	1	obsgroup
obs67	272.092437	1	obsgroup
obs68	245.061404	1	obsgroup
obs69	244.940171	1	obsgroup
obs70	404.245614	1	obsgroup
obs71	1196.283186	1	obsgroup
obs72	871.853448	1	obsgroup
obs73	636.333333	1	obsgroup
obs74	581.169492	1	obsgroup
obs75	651.081818	1	obsgroup
obs76	606.250000	1	obsgroup
obs77	508.833333	1	obsgroup
obs78	441.605263	1	obsgroup
obs79	396.177570	1	obsgroup
obs80	475.887850	1	obsgroup
obs81	681.323810	1	obsgroup
obs82	589.530435	1	obsgroup
obs83	493.565217	1	obsgroup
obs84	691.891892	1	obsgroup
obs85	1319.217391	1	obsgroup
obs86	1038.965517	1	obsgroup
obs87	1089.677966	1	obsgroup
obs88	4818.679245	1	obsgroup
obs89	3091.982759	1	obsgroup
obs90	1648.728814	1	obsgroup
obs91	1161.858407	1	obsgroup
obs92	1226.054054	1	obsgroup
obs93	1195.701754	1	obsgroup
obs94	938.763158	1	obsgroup
obs95	828.792793	1	obsgroup
obs96	880.657143	1	obsgroup
obs97	913.517544	1	obsgroup
obs98	1137.745455	1	obsgroup
obs99	875.707965	1	obsgroup
obs100	720.702703	1	obsgroup
obs101	742.601852	1	obsgroup
obs102	923.577982	1	obsgroup
obs103	1021.581818	1	obsgroup
obs104	1058.625000	1	obsgroup
obs105	1754.955752	1	obsgroup
obs106	1322.260870	1	obsgroup
obs107	1198.108108	1	obsgroup
obs108	1100.521739	1	obsgroup
obs109	1064.000000	1	obsgroup
obs110	1008.535714	1	obsgroup
obs111	980.752294	1	obsgroup
obs112	766.294643	1	obsgroup
obs113	641.723214	1	obsgroup
obs114	610.603604	1	obsgroup
obs115	547.106195	1	obsgroup
obs116	509.500000	1	obsgroup
obs117	1166.081081	1	obsgroup
obs118	1521.351351	1	obsgroup
obs119	1446.574074	1	obsgroup
obs120	1272.631579	1	obsgroup
obs121	1148.173913	1	obsgroup
obs122	1046.444444	1	obsgroup
obs123	1518.400000	1	obsgroup
obs124	1390.614035	1	obsgroup
obs125	988.425926	1	obsgroup
obs126	782.929204	1	obsgroup
obs127	661.771186	1	obsgroup
obs128	581.728070	1	obsgroup
obs129	536.278261	1	obsgroup
obs130	642.946429	1	obsgroup
obs131	634.947368	1	obsgroup
obs132	569.565217	1	obsgroup
obs133	526.447368	1	obsgroup
obs134	502.719298	1	obsgroup
obs135	492.142857	1	obsgroup
obs136	471.125000	1	obsgroup
obs137	444.500000	1	obsgroup
obs138	460.757009	1	obsgroup
obs139	508.864865	1	obsgroup
obs140	931.009174	1	obsgroup
obs141	900.526316	1	obsgroup
obs142	905.198276	1	obsgroup
obs143	788.347826	1	obsgroup
obs144	699.224138	1	obsgroup
obs145	616.387931	1	obsgroup
obs146	695.384615	1	obsgroup
obs147	722.785714	1	obsgroup
obs148	633.085470	1	obsgroup
obs149	546.313043	1	obsgroup
obs150	480.286957	1	obsgroup
obs151	531.254386	1	obsgroup
obs152	554.322034	1	obsgroup
obs153	3615.547009	1	obsgroup
obs154	3165.739130	1	obsgroup
obs155	3628.230088	1	obsgroup
obs156	2304.608696	1	obsgroup
obs157	1439.912281	1	obsgroup
obs158	1242.166667	1	obsgroup
obs159	971.396552	1	obsgroup
obs160	943.539130	1	obsgroup
obs161	1494.741379	1	obsgroup
obs162	1350.782609	1	obsgroup
obs163	984.630252	1	obsgroup
obs164	760.424779	1	obsgroup
obs165	617.155172	1	obsgroup
obs166	521.894737	1	obsgroup
obs167	474.162393	1	obsgroup
obs168	435.991228	1	obsgroup
obs169	387.871795	1	obsgroup
obs170	351.529915	1	obsgroup
obs171	328.948276	1	obsgroup
obs172	303.589744	1	obsgroup
obs173	279.963964	1	obsgroup
obs174	258.234783	1	obsgroup
obs175	237.652174	1	obsgroup
obs176	220.247788	1	obsgroup
obs177	205.135593	1	obsgroup
obs178	191.085470	1	obsgroup
obs179	180.130435	1	obsgroup
obs180	171.614035	1	obsgroup
obs181	162.309735	1	obsgroup
obs182	153.322034	1	obsgroup
obs183	173.512605	1	obsgroup
obs184	162.243697	1	obsgroup
obs185	145.777778	1	obsgroup
obs186	136.367521	1	obsgroup
obs187	128.947826	1	obsgroup
obs188	121.760684	1	obsgroup
obs189	115.290598	1	obsgroup
obs190	109.880342	1	obsgroup
obs191	104.552632	1	obsgroup
obs192	100.923478	1	obsgroup
obs193	97.841379	1	obsgroup
obs194	94.329310	1	obsgroup
obs195	91.832479	1	obsgroup
obs196	88.807759	1	obsgroup
obs197	85.332456	1	obsgroup
obs198	81.618966	1	obsgroup
obs199	78.255172	1	obsgroup
obs200	75.874561	1	obsgroup
obs201	73.687179	1	obsgroup
obs202	71.783761	1	obsgroup
obs203	69.727586	1	obsgroup
obs204	67.496522	1	obsgroup
obs205	65.584874	1	obsgroup
obs206	63.646552	1	obsgroup
obs207	61.570175	1	obsgroup
obs208	59.910084	1	obsgroup
obs209	58.511504	1	obsgroup
obs210	57.625000	1	obsgroup
obs211	55.838261	1	obsgroup
obs212	54.575862	1	obsgroup
obs213	53.734188	1	obsgroup
obs214	52.655556	1	obsgroup
obs215	51.275000	1	obsgroup
obs216	50.077064	1	obsgroup
obs217	49.242857	1	obsgroup
obs218	48.245217	1	obsgroup
obs219	46.734188	1	obsgroup
obs220	46.010345	1	obsgroup
obs221	45.044737	1	obsgroup
obs222	44.153636	1	obsgroup
obs223	43.679412	1	obsgroup
obs224	42.576577	1	obsgroup
obs225	41.332456	1	obsgroup
obs226	40.198261	1	obsgroup
obs227	39.360526	1	obsgroup
obs228	38.621053	1	obsgroup
obs229	37.782759	1	obsgroup
obs230	37.437931	1	obsgroup
obs231	37.244828	1	obsgroup
obs232	36.750435	1	obsgroup
obs233	35.920339	1	obsgroup
obs234	35.483186	1	obsgroup
obs235	35.454867	1	obsgroup
obs236	34.531034	1	obsgroup
obs237	33.455238	1	obsgroup
obs238	32.696842	1	obsgroup
obs239	32.664078	1	obsgroup
obs240	32.469444	1	obsgroup
obs241	32.117797	1	obsgroup
obs242	34.866087	1	obsgroup
obs243	35.989091	1	obsgroup
obs244	50.943860	1	obsgroup
obs245	50.077311	1	obsgroup
obs246	38.730833	1	obsgroup
obs247	34.984874	1	obsgroup
obs248	33.285714	1	obsgroup
obs249	32.148276	1	obsgroup
obs250	34.060345	1	obsgroup
obs251	44.481982	1	obsgroup
obs252	57.293966	1	obsgroup
obs253	57.320690	1	obsgroup
obs254	42.686441	1	obsgroup
obs255	37.338261	1	obsgroup
obs256	34.924370	1	obsgroup
obs257	33.499160	1	obsgroup
obs258	33.212605	1	obsgroup
obs259	33.470085	1	obsgroup
obs260	33.563866	1	obsgroup
obs261	47.932203	1	obsgroup
obs262	145.567241	1	obsgroup
obs263	451.299145	1	obsgroup
obs264	154.126050	1	obsgroup
obs265	95.821008	1	obsgroup
obs266	75.271930	1	obsgroup
obs267	74.290517	1	obsgroup
obs268	64.534483	1	obsgroup
obs269	56.726891	1	obsgroup
obs270	52.185593	1	obsgroup
obs271	48.461739	1	obsgroup
obs272	45.815385	1	obsgroup
obs273	43.710256	1	obsgroup
obs274	41.384615	1	obsgroup
obs275	39.551327	1	obsgroup
obs276	38.500000	1	obsgroup
obs277	37.733898	1	obsgroup
obs278	36.686441	1	obsgroup
obs279	35.613559	1	obsgroup
obs280	35.043299	1	obsgroup
obs281	34.460377	1	obsgroup
obs282	107.964655	1	obsgroup
obs283	271.181034	1	obsgroup
obs284	232.914530	1	obsgroup
obs285	126.198276	1	obsgroup
obs286	93.138136	1	obsgroup
obs287	75.555652	1	obsgroup
obs288	66.175424	1	obsgroup
obs289	60.020339	1	obsgroup
obs290	56.012605	1	obsgroup
obs291	52.786441	1	obsgroup
obs292	49.566667	1	obsgroup
obs293	47.100840	1	obsgroup
obs294	45.049580	1	obsgroup
obs295	49.586667	1	obsgroup
obs296	75.236207	1	obsgroup
obs297	903.008929	1	obsgroup
obs298	1923.211009	1	obsgroup
obs299	1290.413793	1	obsgroup
obs300	758.529412	1	obsgroup
obs301	539.516949	1	obsgroup
obs302	579.491525	1	obsgroup
obs303	502.471698	1	obsgroup
obs304	783.666667	1	obsgroup
obs305	611.964912	1	obsgroup
obs306	1070.128205	1	obsgroup
obs307	721.652174	1	obsgroup
obs308	489.094828	1	obsgroup
obs309	375.086207	1	obsgroup
obs310	309.184874	1	obsgroup
obs311	890.137931	1	obsgroup
obs312	978.618644	1	obsgroup
obs313	958.608333	1	obsgroup
obs314	1576.134454	1	obsgroup
obs315	958.571429	1	obsgroup
obs316	739.466102	1	obsgroup
obs317	595.247863	1	obsgroup
obs318	844.764706	1	obsgroup
obs319	960.932203	1	obsgroup
obs320	1309.473684	1	obsgroup
obs321	1193.367521	1	obsgroup
obs322	2961.610169	1	obsgroup
obs323	1449.583333	1	obsgroup
obs324	1031.974359	1	obsgroup
obs325	794.716814	1	obsgroup
obs326	679.229358	1	obsgroup
obs327	554.482456	1	obsgroup
obs328	0.000000	0	obsgroup
obs329	391.452174	1	obsgroup
obs330	592.218487	1	obsgroup
obs331	1376.302521	1	obsgroup
obs332	898.974576	1	obsgroup
obs333	680.401709	1	obsgroup
obs334	1602.330508	1	obsgroup
obs335	3618.907563	1	obsgroup
obs336	2428.389831	1	obsgroup
obs337	1524.615385	1	obsgroup
obs338	1046.188034	1	obsgroup
obs339	808.865546	1	obsgroup
obs340	765.789916	1	obsgroup
obs341	878.491379	1	obsgroup
obs342	1531.017544	1	obsgroup
obs343	3105.299145	1	obsgroup
obs344	3419.576271	1	obsgroup
obs345	3371.848739	1	obsgroup
obs346	4656.410256	1	obsgroup
obs347	5515.470085	1	obsgroup
obs348	4599.196429	1	obsgroup
obs349	2500.338983	1	obsgroup
obs350	1502.521008	1	obsgroup
obs351	1055.336207	1	obsgroup
obs352	858.940678	1	obsgroup
obs353	729.508475	1	obsgroup
obs354	674.041667	1	obsgroup
obs355	636.398305	1	obsgroup
obs356	573.226087	1	obsgroup
obs357	514.789916	1	obsgroup
obs358	461.191667	1	obsgroup
obs359	480.449153	1	obsgroup
obs360	552.431034	1	obsgroup
obs361	615.279661	1	obsgroup
obs362	3187.583333	1	obsgroup
obs363	2822.166667	1	obsgroup
obs364	1376.206897	1	obsgroup
obs365	919.575000	1	obsgroup
obs366	713.823529	1	obsgroup
obs367	585.428571	1	obsgroup
obs368	499.008403	1	obsgroup
obs369	441.176471	1	obsgroup
obs370	399.957983	1	obsgroup
obs371	369.475000	1	obsgroup
obs372	369.086207	1	obsgroup
obs373	431.470588	1	obsgroup
obs374	402.324786	1	obsgroup
obs375	354.358333	1	obsgroup
obs376	325.394958	1	obsgroup
obs377	1391.567797	1	obsgroup
obs378	3627.750000	1	obsgroup
obs379	3449.285714	1	obsgroup
obs380	3246.140351	1	obsgroup
obs381	8528.050847	1	obsgroup
obs382	5112.881356	1	obsgroup
obs383	2717.731092	1	obsgroup
obs384	2412.268908	1	obsgroup
obs385	1503.135593	1	obsgroup
obs386	1131.833333	1	obsgroup
obs387	980.730435	1	obsgroup
obs388	799.743590	1	obsgroup
obs389	679.618644	1	obsgroup
obs390	597.051282	1	obsgroup
obs391	527.134454	1	obsgroup
obs392	486.294118	1	obsgroup
obs393	462.764706	1	obsgroup
obs394	431.840336	1	obsgroup
obs395	397.966667	1	obsgroup
obs396	364.191667	1	obsgroup
obs397	333.260504	1	obsgroup
obs398	305.600000	1	obsgroup
obs399	282.118644	1	obsgroup
obs400	268.313559	1	obsgroup
obs401	351.925000	1	obsgroup
obs402	424.201681	1	obsgroup
obs403	463.533898	1	obsgroup
obs404	454.042373	1	obsgroup
obs405	386.117647	1	obsgroup
obs406	342.803419	1	obsgroup
obs407	318.923077	1	obsgroup
obs408	311.362069	1	obsgroup
obs409	465.420168	1	obsgroup
obs410	473.991525	1	obsgroup
obs411	613.898305	1	obsgroup
obs412	558.126050	1	obsgroup
obs413	465.500000	1	obsgroup
obs414	410.538462	1	obsgroup
obs415	367.683333	1	obsgroup
obs416	334.203390	1	obsgroup
obs417	307.353448	1	obsgroup
obs418	307.153846	1	obsgroup
obs419	293.336207	1	obsgroup
obs420	272.559322	1	obsgroup
obs421	242.324561	1	obsgroup
obs422	0.000000		0	obsgroup
obs423	224.222222	1	obsgroup
obs424	464.850877	1	obsgroup
obs425	825.052632	1	obsgroup
obs426	875.425000	1	obsgroup
obs427	826.966102	1	obsgroup
obs428	645.913793	1	obsgroup
obs429	1051.504202	1	obsgroup
obs430	942.066667	1	obsgroup
obs431	708.444444	1	obsgroup
obs432	731.882353	1	obsgroup
obs433	1500.293578	1	obsgroup
obs434	3301.651376	1	obsgroup
obs435	2091.610169	1	obsgroup
obs436	1285.378151	1	obsgroup
obs437	1289.369369	1	obsgroup
obs438	1748.434783	1	obsgroup
obs439	2191.391304	1	obsgroup
obs440	2350.173913	1	obsgroup
obs441	1471.333333	1	obsgroup
obs442	1133.277311	1	obsgroup
obs443	943.000000	1	obsgroup
obs444	802.625000	1	obsgroup
obs445	807.633333	1	obsgroup
obs446	794.605042	1	obsgroup
obs447	687.896552	1	obsgroup
obs448	665.957983	1	obsgroup
obs449	653.563025	1	obsgroup
obs450	840.594828	1	obsgroup
obs451	1035.862069	1	obsgroup
obs452	1005.158333	1	obsgroup
obs453	1407.661017	1	obsgroup
obs454	3304.859813	1	obsgroup
obs455	3176.111111	1	obsgroup
obs456	2642.068966	1	obsgroup
obs457	2455.811966	1	obsgroup
obs458	1539.327731	1	obsgroup
obs459	1235.966387	1	obsgroup
obs460	2628.000000	1	obsgroup
obs461	1676.315789	1	obsgroup
obs462	1214.086957	1	obsgroup
obs463	932.150442	1	obsgroup
obs464	774.194690	1	obsgroup
obs465	685.946429	1	obsgroup
obs466	997.633929	1	obsgroup
obs467	862.902655	1	obsgroup
obs468	734.120690	1	obsgroup
obs469	775.720339	1	obsgroup
obs470	1865.042735	1	obsgroup
obs471	4078.782609	1	obsgroup
obs472	2938.173913	1	obsgroup
obs473	1660.173913	1	obsgroup
obs474	1138.678571	1	obsgroup
obs475	897.700855	1	obsgroup
obs476	760.025424	1	obsgroup
obs477	646.153846	1	obsgroup
obs478	608.829060	1	obsgroup
obs479	717.596639	1	obsgroup
obs480	1623.803571	1	obsgroup
obs481	1903.559322	1	obsgroup
obs482	1455.299145	1	obsgroup
obs483	1197.310924	1	obsgroup
obs484	1034.830508	1	obsgroup
obs485	947.563025	1	obsgroup
obs486	837.798077	1	obsgroup
obs487	860.812500	1	obsgroup
obs488	818.760417	1	obsgroup
obs489	771.315789	1	obsgroup
obs490	889.866071	1	obsgroup
obs491	911.201754	1	obsgroup
obs492	1081.254237	1	obsgroup
obs493	1211.008403	1	obsgroup
obs494	1048.290598	1	obsgroup
obs495	929.789474	1	obsgroup
obs496	1044.155172	1	obsgroup
obs497	1206.608696	1	obsgroup
obs498	1004.876106	1	obsgroup
obs499	972.818966	1	obsgroup
obs500	907.931034	1	obsgroup
obs501	987.791304	1	obsgroup
obs502	865.309091	1	obsgroup
obs503	809.937500	1	obsgroup
obs504	787.817391	1	obsgroup
obs505	786.221239	1	obsgroup
obs506	809.842105	1	obsgroup
obs507	709.645455	1	obsgroup
obs508	639.196429	1	obsgroup
obs509	612.846847	1	obsgroup
obs510	700.215517	1	obsgroup
obs511	754.000000	1	obsgroup
obs512	1294.141667	1	obsgroup
obs513	1335.258621	1	obsgroup
obs514	999.914530	1	obsgroup
obs515	868.675000	1	obsgroup
obs516	1075.186441	1	obsgroup
obs517	1098.474576	1	obsgroup
obs518	1012.923077	1	obsgroup
obs519	910.275862	1	obsgroup
obs520	880.788136	1	obsgroup
obs521	912.529412	1	obsgroup
obs522	902.867257	1	obsgroup
obs523	762.715517	1	obsgroup
obs524	628.079646	1	obsgroup
obs525	531.581818	1	obsgroup
obs526	534.890909	1	obsgroup
obs527	518.654545	1	obsgroup
obs528	475.598214	1	obsgroup
obs529	528.151786	1	obsgroup
obs530	485.934579	1	obsgroup
obs531	437.809091	1	obsgroup
obs532	380.849057	1	obsgroup
obs533	352.330275	1	obsgroup
obs534	359.965812	1	obsgroup
obs535	403.684685	1	obsgroup
obs536	364.150442	1	obsgroup
obs537	354.081081	1	obsgroup
obs538	342.747826	1	obsgroup
obs539	314.026786	1	obsgroup
obs540	259.973913	1	obsgroup
obs541	229.070175	1	obsgroup
obs542	212.348624	1	obsgroup
obs543	202.867257	1	obsgroup
obs544	227.336283	1	obsgroup
obs545	205.586207	1	obsgroup
obs546	204.350877	1	obsgroup
obs547	181.358974	1	obsgroup
obs548	164.930435	1	obsgroup
obs549	155.465517	1	obsgroup
obs550	144.170940	1	obsgroup
obs551	133.886957	1	obsgroup
obs552	126.444444	1	obsgroup
obs553	120.964602	1	obsgroup
obs554	114.640351	1	obsgroup
obs555	107.526316	1	obsgroup
obs556	101.445614	1	obsgroup
obs557	97.458475	1	obsgroup
obs558	100.429915	1	obsgroup
obs559	103.296581	1	obsgroup
obs560	93.317094	1	obsgroup
obs561	88.167857	1	obsgroup
obs562	94.408036	1	obsgroup
obs563	107.100870	1	obsgroup
obs564	96.073451	1	obsgroup
obs565	102.751818	1	obsgroup
obs566	106.682906	1	obsgroup
obs567	92.063636	1	obsgroup
obs568	86.230088	1	obsgroup
obs569	80.748718	1	obsgroup
obs570	76.512281	1	obsgroup
obs571	73.216071	1	obsgroup
obs572	71.430357	1	obsgroup
obs573	68.840541	1	obsgroup
obs574	66.615789	1	obsgroup
obs575	64.489474	1	obsgroup
obs576	63.071053	1	obsgroup
obs577	61.203509	1	obsgroup
obs578	59.955963	1	obsgroup
obs579	58.707080	1	obsgroup
obs580	57.363158	1	obsgroup
obs581	56.793860	1	obsgroup
obs582	55.914783	1	obsgroup
obs583	54.913761	1	obsgroup
obs584	54.353043	1	obsgroup
obs585	53.494643	1	obsgroup
obs586	52.627928	1	obsgroup
obs587	51.673913	1	obsgroup
obs588	50.678947	1	obsgroup
obs589	50.174074	1	obsgroup
obs590	49.350000	1	obsgroup
obs591	48.767708	1	obsgroup
obs592	48.240000	1	obsgroup
obs593	47.637168	1	obsgroup
obs594	46.665217	1	obsgroup
obs595	45.590351	1	obsgroup
obs596	45.050435	1	obsgroup
obs597	44.604464	1	obsgroup
obs598	44.100000	1	obsgroup
obs599	43.555652	1	obsgroup
obs600	43.626087	1	obsgroup
obs601	43.563478	1	obsgroup
obs602	43.273913	1	obsgroup
obs603	43.184956	1	obsgroup
obs604	42.180870	1	obsgroup
obs605	41.259649	1	obsgroup
obs606	40.567568	1	obsgroup
obs607	40.492857	1	obsgroup
obs608	40.146154	1	obsgroup
obs609	39.960526	1	obsgroup
obs610	39.471053	1	obsgroup
obs611	38.895370	1	obsgroup
obs612	38.066972	1	obsgroup
obs613	37.584685	1	obsgroup
obs614	37.416364	1	obsgroup
obs615	37.143220	1	obsgroup
obs616	36.676923	1	obsgroup
obs617	36.300000	1	obsgroup
obs618	35.843590	1	obsgroup
obs619	35.200000	1	obsgroup
obs620	34.907826	1	obsgroup
obs621	35.041441	1	obsgroup
obs622	35.155556	1	obsgroup
obs623	35.469027	1	obsgroup
obs624	35.553982	1	obsgroup
obs625	35.257143	1	obsgroup
obs626	34.800000	1	obsgroup
obs627	34.796330	1	obsgroup
obs628	34.928440	1	obsgroup
obs629	34.435088	1	obsgroup
obs630	33.699115	1	obsgroup
obs631	33.115789	1	obsgroup
obs632	32.968421	1	obsgroup
obs633	34.857895	1	obsgroup
obs634	37.700000	1	obsgroup
obs635	39.564035	1	obsgroup
obs636	41.262500	1	obsgroup
obs637	37.204386	1	obsgroup
obs638	35.336937	1	obsgroup
obs639	34.713043	1	obsgroup
obs640	40.769912	1	obsgroup
obs641	50.810714	1	obsgroup
obs642	60.931897	1	obsgroup
obs643	83.680180	1	obsgroup
obs644	73.960714	1	obsgroup
obs645	57.763478	1	obsgroup
obs646	56.770000	1	obsgroup
obs647	50.873684	1	obsgroup
obs648	144.117431	1	obsgroup
obs649	497.990909	1	obsgroup
obs650	259.368421	1	obsgroup
obs651	132.035398	1	obsgroup
obs652	96.168468	1	obsgroup
obs653	76.605263	1	obsgroup
obs654	67.412174	1	obsgroup
obs655	59.802703	1	obsgroup
obs656	54.507965	1	obsgroup
obs657	50.751304	1	obsgroup
obs658	48.075000	1	obsgroup
obs659	46.260550	1	obsgroup
obs660	44.448571	1	obsgroup
obs661	43.664486	1	obsgroup
obs662	42.284259	1	obsgroup
obs663	40.225217	1	obsgroup
obs664	39.463158	1	obsgroup
obs665	38.873585	1	obsgroup
obs666	39.984348	1	obsgroup
obs667	91.925641	1	obsgroup
obs668	150.272807	1	obsgroup
obs669	249.116071	1	obsgroup
obs670	132.072727	1	obsgroup
obs671	96.659649	1	obsgroup
obs672	94.579817	1	obsgroup
obs673	82.452632	1	obsgroup
obs674	74.531579	1	obsgroup
obs675	86.309649	1	obsgroup
obs676	81.864035	1	obsgroup
obs677	75.952137	1	obsgroup
obs678	73.874107	1	obsgroup
obs679	71.146847	1	obsgroup
obs680	67.739130	1	obsgroup
obs681	87.858621	1	obsgroup
obs682	194.438596	1	obsgroup
obs683	223.562500	1	obsgroup
obs684	292.830189	1	obsgroup
obs685	513.482759	1	obsgroup
obs686	2472.110092	1	obsgroup
obs687	1047.954545	1	obsgroup
obs688	569.118182	1	obsgroup
obs689	391.205357	1	obsgroup
obs690	582.883929	1	obsgroup
obs691	3798.627451	1	obsgroup
obs692	2334.375000	1	obsgroup
obs693	1523.333333	1	obsgroup
obs694	1403.805310	1	obsgroup
obs695	859.500000	1	obsgroup
obs696	736.890909	1	obsgroup
obs697	864.423423	1	obsgroup
obs698	658.880734	1	obsgroup
obs699	602.639640	1	obsgroup
obs700	521.170940	1	obsgroup
obs701	437.407080	1	obsgroup
obs702	370.974138	1	obsgroup
obs703	319.672414	1	obsgroup
obs704	281.715517	1	obsgroup
obs705	251.008547	1	obsgroup
obs706	223.477876	1	obsgroup
obs707	202.450450	1	obsgroup
obs708	185.508929	1	obsgroup
obs709	171.842105	1	obsgroup
obs710	160.045045	1	obsgroup
obs711	148.478261	1	obsgroup
obs712	137.617391	1	obsgroup
obs713	130.209091	1	obsgroup
obs714	130.387931	1	obsgroup
obs715	121.095652	1	obsgroup
obs716	115.236842	1	obsgroup
obs717	112.973684	1	obsgroup
obs718	110.181034	1	obsgroup
obs719	104.150442	1	obsgroup
obs720	100.516814	1	obsgroup
obs721	95.638053	1	obsgroup
obs722	92.379130	1	obsgroup
obs723	89.573043	1	obsgroup
obs724	107.735965	1	obsgroup
obs725	127.137931	1	obsgroup
obs726	167.362069	1	obsgroup
obs727	5043.712963	1	obsgroup
obs728	5034.912281	1	obsgroup
obs729	6942.212389	1	obsgroup
obs730	2740.614035	1	obsgroup
obs731	1474.188034	1	obsgroup
obs732	1067.909091	1	obsgroup
obs733	1008.258621	1	obsgroup
obs734	834.715596	1	obsgroup
obs735	867.415929	1	obsgroup
obs736	728.418803	1	obsgroup
obs737	606.603448	1	obsgroup
obs738	520.076923	1	obsgroup
obs739	458.614035	1	obsgroup
obs740	413.135593	1	obsgroup
obs741	368.859649	1	obsgroup
obs742	333.196581	1	obsgroup
obs743	303.930435	1	obsgroup
obs744	285.946903	1	obsgroup
obs745	278.554545	1	obsgroup
obs746	256.393162	1	obsgroup
obs747	270.018018	1	obsgroup
obs748	2710.525862	1	obsgroup
obs749	9627.128713	1	obsgroup
obs750	5598.020833	1	obsgroup
obs751	4695.416667	1	obsgroup
obs752	2469.583333	1	obsgroup
obs753	1855.272727	1	obsgroup
obs754	2664.285714	1	obsgroup
obs755	4822.452830	1	obsgroup
obs756	3941.296296	1	obsgroup
obs757	2165.535714	1	obsgroup
obs758	1340.526316	1	obsgroup
obs759	1202.609524	1	obsgroup
obs760	2409.541284	1	obsgroup
obs761	1412.608696	1	obsgroup
obs762	1200.090909	1	obsgroup
obs763	980.686957	1	obsgroup
obs764	781.027273	1	obsgroup
obs765	645.789474	1	obsgroup
obs766	552.695652	1	obsgroup
obs767	495.442478	1	obsgroup
obs768	449.583333	1	obsgroup
obs769	489.508772	1	obsgroup
obs770	786.956140	1	obsgroup
obs771	853.743363	1	obsgroup
obs772	1368.482143	1	obsgroup
obs773	888.589286	1	obsgroup
obs774	679.351351	1	obsgroup
obs775	568.351852	1	obsgroup
obs776	487.863636	1	obsgroup
obs777	437.636364	1	obsgroup
obs778	495.028037	1	obsgroup
obs779	901.380531	1	obsgroup
obs780	670.134454	1	obsgroup
obs781	901.823009	1	obsgroup
obs782	1935.566038	1	obsgroup
obs783	2770.285714	1	obsgroup
obs784	1936.228070	1	obsgroup
obs785	1198.909091	1	obsgroup
obs786	1067.537736	1	obsgroup
obs787	820.071429	1	obsgroup
obs788	677.867257	1	obsgroup
obs789	595.719626	1	obsgroup
obs790	546.638095	1	obsgroup
obs791	492.463636	1	obsgroup
obs792	434.813084	1	obsgroup
obs793	458.711712	1	obsgroup
obs794	609.500000	1	obsgroup
obs795	844.436364	1	obsgroup
obs796	929.678899	1	obsgroup
obs797	665.145455	1	obsgroup
obs798	597.043860	1	obsgroup
obs799	781.017699	1	obsgroup
obs800	889.147826	1	obsgroup
obs801	1148.000000	1	obsgroup
obs802	930.261682	1	obsgroup
obs803	1340.625000	1	obsgroup
obs804	997.680851	1	obsgroup
obs805	4120.520833	1	obsgroup
obs806	4520.918367	1	obsgroup
obs807	2366.074766	1	obsgroup
obs808	1533.035714	1	obsgroup
obs809	1090.444444	1	obsgroup
obs810	1923.107143	1	obsgroup
obs811	2155.871560	1	obsgroup
obs812	1782.038835	1	obsgroup
obs813	1280.540541	1	obsgroup
obs814	1052.920354	1	obsgroup
obs815	1063.084112	1	obsgroup
obs816	963.400000	1	obsgroup
obs817	903.116071	1	obsgroup
obs818	1145.263158	1	obsgroup
obs819	1796.788991	1	obsgroup
obs820	7689.026549	1	obsgroup
obs821	3953.660714	1	obsgroup
obs822	2579.732143	1	obsgroup
obs823	1735.486726	1	obsgroup
obs824	1421.196581	1	obsgroup
obs825	1238.952381	1	obsgroup
obs826	1001.272727	1	obsgroup
obs827	835.803571	1	obsgroup
obs828	714.807018	1	obsgroup
obs829	672.100000	1	obsgroup
obs830	764.205357	1	obsgroup
obs831	884.116071	1	obsgroup
obs832	1023.504425	1	obsgroup
obs833	1005.305556	1	obsgroup
obs834	841.729730	1	obsgroup
obs835	743.991071	1	obsgroup
obs836	729.175439	1	obsgroup
obs837	1746.284404	1	obsgroup
obs838	1807.327586	1	obsgroup
obs839	2087.155172	1	obsgroup
obs840	2264.830508	1	obsgroup
obs841	2914.035088	1	obsgroup
obs842	2005.258621	1	obsgroup
obs843	1779.369369	1	obsgroup
obs844	1727.857143	1	obsgroup
obs845	1532.293578	1	obsgroup
obs846	1201.858407	1	obsgroup
obs847	1795.775862	1	obsgroup
obs848	1717.410714	1	obsgroup
obs849	1328.190476	1	obsgroup
obs850	1026.162162	1	obsgroup
obs851	1610.740741	1	obsgroup
obs852	1668.736842	1	obsgroup
obs853	1228.157895	1	obsgroup
obs854	1811.714286	1	obsgroup
obs855	2025.471698	1	obsgroup
obs856	1576.415094	1	obsgroup
obs857	1159.911504	1	obsgroup
obs858	934.645455	1	obsgroup
obs859	862.383178	1	obsgroup
obs860	800.877193	1	obsgroup
obs861	658.457143	1	obsgroup
obs862	556.000000	1	obsgroup
obs863	499.590909	1	obsgroup
obs864	522.864865	1	obsgroup
obs865	579.444444	1	obsgroup
obs866	568.132743	1	obsgroup
obs867	505.259259	1	obsgroup
obs868	423.666667	1	obsgroup
obs869	357.083333	1	obsgroup
obs870	312.651376	1	obsgroup
obs871	285.710526	1	obsgroup
obs872	330.279279	1	obsgroup
obs873	519.709091	1	obsgroup
obs874	577.845455	1	obsgroup
obs875	909.198113	1	obsgroup
obs876	928.742857	1	obsgroup
obs877	701.884956	1	obsgroup
obs878	546.692982	1	obsgroup
obs879	457.636364	1	obsgroup
obs880	389.157895	1	obsgroup
obs881	342.567568	1	obsgroup
obs882	314.577982	1	obsgroup
obs883	298.230088	1	obsgroup
obs884	317.719298	1	obsgroup
obs885	268.294643	1	obsgroup
obs886	397.218182	1	obsgroup
obs887	819.302083	1	obsgroup
obs888	693.833333	1	obsgroup
obs889	615.180952	1	obsgroup
obs890	801.150442	1	obsgroup
obs891	1076.035714	1	obsgroup
obs892	766.973684	1	obsgroup
obs893	578.758929	1	obsgroup
obs894	481.223301	1	obsgroup
obs895	442.123894	1	obsgroup
obs896	379.283186	1	obsgroup
obs897	328.750000	1	obsgroup
obs898	293.660550	1	obsgroup
obs899	267.062500	1	obsgroup
obs900	265.098214	1	obsgroup
obs901	267.637168	1	obsgroup
obs902	232.361111	1	obsgroup
obs903	211.660377	1	obsgroup
obs904	201.823009	1	obsgroup
obs905	272.678571	1	obsgroup
obs906	291.459459	1	obsgroup
obs907	262.937500	1	obsgroup
obs908	360.460177	1	obsgroup
obs909	385.839286	1	obsgroup
obs910	304.800000	1	obsgroup
obs911	257.809524	1	obsgroup
obs912	230.818182	1	obsgroup
obs913	222.245098	1	obsgroup
obs914	199.322917	1	obsgroup
obs915	202.770833	1	obsgroup
obs916	192.636364	1	obsgroup
obs917	173.082474	1	obsgroup
obs918	157.562500	1	obsgroup
obs919	146.312500	1	obsgroup
obs920	137.458333	1	obsgroup
obs921	129.031250	1	obsgroup
obs922	122.250000	1	obsgroup
obs923	115.770833	1	obsgroup
obs924	110.854167	1	obsgroup
obs925	106.239583	1	obsgroup
obs926	102.617708	1	obsgroup
obs927	99.834375	1	obsgroup
obs928	96.777083	1	obsgroup
obs929	93.862500	1	obsgroup
obs930	92.394792	1	obsgroup
obs931	89.985417	1	obsgroup
obs932	88.517708	1	obsgroup
obs933	84.807292	1	obsgroup
obs934	80.683333	1	obsgroup
obs935	78.557292	1	obsgroup
obs936	74.317708	1	obsgroup
obs937	71.898958	1	obsgroup
obs938	68.750000	1	obsgroup
obs939	65.862500	1	obsgroup
obs940	64.108333	1	obsgroup
obs941	62.268750	1	obsgroup
obs942	60.819792	1	obsgroup
obs943	60.063542	1	obsgroup
obs944	58.752083	1	obsgroup
obs945	57.666667	1	obsgroup
obs946	56.636458	1	obsgroup
obs947	54.922917	1	obsgroup