pcf
* control data
restart  estimation
    8  3287     8     0     1
    1     1 single point   1   0   0
  5.0   2.0   0.3  0.03    10  999  lamforgive  derforgive
  3.0   3.0 0.001  0
  0.1
   30  0.01     3     3  0.01     3
    1     1     1     1
* parameter groups
fc           relative 0.01  0.0  switch  2.0 parabolic
beta         relative 0.01  0.0  switch  2.0 parabolic
perc         relative 0.01  0.0  switch  2.0 parabolic
uzl          relative 0.01  0.0  switch  2.0 parabolic
k0           relative 0.01  0.0  switch  2.0 parabolic
k1           relative 0.01  0.0  switch  2.0 parabolic
k2           relative 0.01  0.0  switch  2.0 parabolic
et_mult      relative 0.01  0.0  switch  2.0 parabolic
* parameter data
fc           none relative   520.944      50.000000  600.000000      fc              1.0000        0.0000      1
beta         none relative   1.01923      1.000000    6.000000       beta            1.0000        0.0000      1
perc         none relative   0.163961     0.000100    0.500000       perc            1.0000        0.0000      1
uzl          none relative   8.50326      0.100000   75.000000       uzl             1.0000        0.0000      1
k0           none relative   0.218876     0.050000    0.700000       k0              1.0000        0.0000      1
k1           none relative   0.151643     0.010000    0.400000       k1              1.0000        0.0000      1
k2           none relative   0.03676	  0.000100    0.150000       k2              1.0000        0.0000      1
et_mult      none relative   1            0.100000    10.00000       et_mult         1.0000        0.0000      1
* observation groups
obsgroup
* observation data
obs1	600.041667	1	obsgroup
obs2	650.583333	1	obsgroup
obs3	650.635417	1	obsgroup
obs4	749.583333	1	obsgroup
obs5	902.197917	1	obsgroup
obs6	751.958333	1	obsgroup
obs7	526.875000	1	obsgroup
obs8	511.041667	1	obsgroup
obs9	388.041667	1	obsgroup
obs10	289.114583	1	obsgroup
obs11	271.250000	1	obsgroup
obs12	269.562500	1	obsgroup
obs13	270.812500	1	obsgroup
obs14	273.312500	1	obsgroup
obs15	275.000000	1	obsgroup
obs16	284.052083	1	obsgroup
obs17	349.979167	1	obsgroup
obs18	356.000000	1	obsgroup
obs19	356.000000	1	obsgroup
obs20	353.187500	1	obsgroup
obs21	265.062500	1	obsgroup
obs22	172.239583	1	obsgroup
obs23	119.560417	1	obsgroup
obs24	89.200000	1	obsgroup
obs25	89.793750	1	obsgroup
obs26	92.683333	1	obsgroup
obs27	93.336458	1	obsgroup
obs28	94.900000	1	obsgroup
obs29	126.353125	1	obsgroup
obs30	185.000000	1	obsgroup
obs31	185.000000	1	obsgroup
obs32	185.000000	1	obsgroup
obs33	222.302083	1	obsgroup
obs34	224.333333	1	obsgroup
obs35	195.406250	1	obsgroup
obs36	195.625000	1	obsgroup
obs37	193.500000	1	obsgroup
obs38	193.000000	1	obsgroup
obs39	143.843750	1	obsgroup
obs40	105.000000	1	obsgroup
obs41	105.000000	1	obsgroup
obs42	105.000000	1	obsgroup
obs43	105.104167	1	obsgroup
obs44	105.979167	1	obsgroup
obs45	107.000000	1	obsgroup
obs46	107.000000	1	obsgroup
obs47	108.375000	1	obsgroup
obs48	109.000000	1	obsgroup
obs49	109.000000	1	obsgroup
obs50	109.000000	1	obsgroup
obs51	107.145833	1	obsgroup
obs52	101.000000	1	obsgroup
obs53	87.739583	1	obsgroup
obs54	74.300000	1	obsgroup
obs55	74.656250	1	obsgroup
obs56	76.100000	1	obsgroup
obs57	76.775000	1	obsgroup
obs58	77.900000	1	obsgroup
obs59	77.900000	1	obsgroup
obs60	77.900000	1	obsgroup
obs61	77.900000	1	obsgroup
obs62	77.900000	1	obsgroup
obs63	79.344792	1	obsgroup
obs64	79.800000	1	obsgroup
obs65	79.800000	1	obsgroup
obs66	79.800000	1	obsgroup
obs67	79.800000	1	obsgroup
obs68	79.800000	1	obsgroup
obs69	79.800000	1	obsgroup
obs70	79.800000	1	obsgroup
obs71	81.973958	1	obsgroup
obs72	81.412500	1	obsgroup
obs73	81.600000	1	obsgroup
obs74	81.450000	1	obsgroup
obs75	79.800000	1	obsgroup
obs76	79.800000	1	obsgroup
obs77	79.800000	1	obsgroup
obs78	79.800000	1	obsgroup
obs79	79.800000	1	obsgroup
obs80	79.800000	1	obsgroup
obs81	88.073958	1	obsgroup
obs82	94.900000	1	obsgroup
obs83	94.880208	1	obsgroup
obs84	94.900000	1	obsgroup
obs85	350.381250	1	obsgroup
obs86	628.000000	1	obsgroup
obs87	626.385417	1	obsgroup
obs88	734.552083	1	obsgroup
obs89	909.770833	1	obsgroup
obs90	1231.145833	1	obsgroup
obs91	1451.562500	1	obsgroup
obs92	1434.479167	1	obsgroup
obs93	1391.562500	1	obsgroup
obs94	1145.427083	1	obsgroup
obs95	760.916667	1	obsgroup
obs96	601.927083	1	obsgroup
obs97	524.927083	1	obsgroup
obs98	503.208333	1	obsgroup
obs99	465.583333	1	obsgroup
obs100	350.187500	1	obsgroup
obs101	357.062500	1	obsgroup
obs102	359.000000	1	obsgroup
obs103	359.416667	1	obsgroup
obs104	363.000000	1	obsgroup
obs105	223.791667	1	obsgroup
obs106	96.461458	1	obsgroup
obs107	79.800000	1	obsgroup
obs108	79.800000	1	obsgroup
obs109	257.253125	1	obsgroup
obs110	526.885417	1	obsgroup
obs111	528.000000	1	obsgroup
obs112	527.739583	1	obsgroup
obs113	423.906250	1	obsgroup
obs114	322.864583	1	obsgroup
obs115	275.000000	1	obsgroup
obs116	247.250000	1	obsgroup
obs117	627.104167	1	obsgroup
obs118	812.187500	1	obsgroup
obs119	764.458333	1	obsgroup
obs120	699.593750	1	obsgroup
obs121	572.770833	1	obsgroup
obs122	522.250000	1	obsgroup
obs123	404.604167	1	obsgroup
obs124	333.177083	1	obsgroup
obs125	251.697917	1	obsgroup
obs126	127.987500	1	obsgroup
obs127	77.476042	1	obsgroup
obs128	76.100000	1	obsgroup
obs129	76.100000	1	obsgroup
obs130	77.018750	1	obsgroup
obs131	77.900000	1	obsgroup
obs132	77.900000	1	obsgroup
obs133	77.900000	1	obsgroup
obs134	77.900000	1	obsgroup
obs135	77.900000	1	obsgroup
obs136	79.780208	1	obsgroup
obs137	120.373958	1	obsgroup
obs138	153.020833	1	obsgroup
obs139	190.822917	1	obsgroup
obs140	292.885417	1	obsgroup
obs141	321.000000	1	obsgroup
obs142	340.406250	1	obsgroup
obs143	429.958333	1	obsgroup
obs144	344.093750	1	obsgroup
obs145	302.562500	1	obsgroup
obs146	305.000000	1	obsgroup
obs147	477.979167	1	obsgroup
obs148	490.562500	1	obsgroup
obs149	356.510417	1	obsgroup
obs150	226.000000	1	obsgroup
obs151	293.697917	1	obsgroup
obs152	408.218750	1	obsgroup
obs153	635.406250	1	obsgroup
obs154	868.031250	1	obsgroup
obs155	1382.854167	1	obsgroup
obs156	1367.187500	1	obsgroup
obs157	824.760417	1	obsgroup
obs158	583.427083	1	obsgroup
obs159	416.000000	1	obsgroup
obs160	416.000000	1	obsgroup
obs161	440.270833	1	obsgroup
obs162	546.250000	1	obsgroup
obs163	431.520833	1	obsgroup
obs164	361.239583	1	obsgroup
obs165	321.687500	1	obsgroup
obs166	268.687500	1	obsgroup
obs167	241.125000	1	obsgroup
obs168	237.000000	1	obsgroup
obs169	205.531250	1	obsgroup
obs170	170.770833	1	obsgroup
obs171	172.000000	1	obsgroup
obs172	165.812500	1	obsgroup
obs173	143.000000	1	obsgroup
obs174	138.760417	1	obsgroup
obs175	125.604167	1	obsgroup
obs176	97.293750	1	obsgroup
obs177	74.300000	1	obsgroup
obs178	79.554167	1	obsgroup
obs179	100.316667	1	obsgroup
obs180	111.833333	1	obsgroup
obs181	111.000000	1	obsgroup
obs182	70.338542	1	obsgroup
obs183	53.465625	1	obsgroup
obs184	68.760417	1	obsgroup
obs185	82.233333	1	obsgroup
obs186	82.114583	1	obsgroup
obs187	82.292708	1	obsgroup
obs188	81.896875	1	obsgroup
obs189	83.064583	1	obsgroup
obs190	67.872917	1	obsgroup
obs191	58.317708	1	obsgroup
obs192	59.982292	1	obsgroup
obs193	60.000000	1	obsgroup
obs194	60.000000	1	obsgroup
obs195	60.000000	1	obsgroup
obs196	60.000000	1	obsgroup
obs197	52.389583	1	obsgroup
obs198	49.900000	1	obsgroup
obs199	49.900000	1	obsgroup
obs200	49.900000	1	obsgroup
obs201	49.900000	1	obsgroup
obs202	49.900000	1	obsgroup
obs203	49.900000	1	obsgroup
obs204	49.900000	1	obsgroup
obs205	48.979167	1	obsgroup
obs206	48.200000	1	obsgroup
obs207	49.439583	1	obsgroup
obs208	51.600000	1	obsgroup
obs209	51.600000	1	obsgroup
obs210	51.600000	1	obsgroup
obs211	51.600000	1	obsgroup
obs212	51.783333	1	obsgroup
obs213	53.200000	1	obsgroup
obs214	53.200000	1	obsgroup
obs215	53.200000	1	obsgroup
obs216	53.200000	1	obsgroup
obs217	53.731250	1	obsgroup
obs218	54.900000	1	obsgroup
obs219	54.900000	1	obsgroup
obs220	54.900000	1	obsgroup
obs221	54.900000	1	obsgroup
obs222	54.900000	1	obsgroup
obs223	54.900000	1	obsgroup
obs224	54.900000	1	obsgroup
obs225	55.254167	1	obsgroup
obs226	54.900000	1	obsgroup
obs227	54.900000	1	obsgroup
obs228	54.900000	1	obsgroup
obs229	54.900000	1	obsgroup
obs230	54.900000	1	obsgroup
obs231	54.900000	1	obsgroup
obs232	54.900000	1	obsgroup
obs233	54.421875	1	obsgroup
obs234	53.200000	1	obsgroup
obs235	103.613542	1	obsgroup
obs236	155.000000	1	obsgroup
obs237	153.583333	1	obsgroup
obs238	153.000000	1	obsgroup
obs239	153.000000	1	obsgroup
obs240	153.000000	1	obsgroup
obs241	153.000000	1	obsgroup
obs242	153.000000	1	obsgroup
obs243	153.000000	1	obsgroup
obs244	153.000000	1	obsgroup
obs245	153.000000	1	obsgroup
obs246	153.000000	1	obsgroup
obs247	153.000000	1	obsgroup
obs248	153.000000	1	obsgroup
obs249	152.187500	1	obsgroup
obs250	150.000000	1	obsgroup
obs251	150.000000	1	obsgroup
obs252	148.958333	1	obsgroup
obs253	148.000000	1	obsgroup
obs254	148.000000	1	obsgroup
obs255	147.145833	1	obsgroup
obs256	146.000000	1	obsgroup
obs257	146.000000	1	obsgroup
obs258	146.000000	1	obsgroup
obs259	146.000000	1	obsgroup
obs260	184.093750	1	obsgroup
obs261	251.625000	1	obsgroup
obs262	251.156250	1	obsgroup
obs263	251.000000	1	obsgroup
obs264	277.343750	1	obsgroup
obs265	450.833333	1	obsgroup
obs266	448.958333	1	obsgroup
obs267	443.916667	1	obsgroup
obs268	439.750000	1	obsgroup
obs269	436.083333	1	obsgroup
obs270	432.833333	1	obsgroup
obs271	428.843750	1	obsgroup
obs272	424.416667	1	obsgroup
obs273	376.770833	1	obsgroup
obs274	330.000000	1	obsgroup
obs275	327.750000	1	obsgroup
obs276	324.468750	1	obsgroup
obs277	304.666667	1	obsgroup
obs278	254.000000	1	obsgroup
obs279	252.531250	1	obsgroup
obs280	249.656250	1	obsgroup
obs281	247.750000	1	obsgroup
obs282	246.000000	1	obsgroup
obs283	246.875000	1	obsgroup
obs284	260.031250	1	obsgroup
obs285	258.250000	1	obsgroup
obs286	256.125000	1	obsgroup
obs287	254.000000	1	obsgroup
obs288	252.406250	1	obsgroup
obs289	248.625000	1	obsgroup
obs290	246.020833	1	obsgroup
obs291	225.375000	1	obsgroup
obs292	206.000000	1	obsgroup
obs293	203.875000	1	obsgroup
obs294	200.906250	1	obsgroup
obs295	198.000000	1	obsgroup
obs296	196.291667	1	obsgroup
obs297	196.166667	1	obsgroup
obs298	196.000000	1	obsgroup
obs299	236.270833	1	obsgroup
obs300	302.343750	1	obsgroup
obs301	302.437500	1	obsgroup
obs302	299.281250	1	obsgroup
obs303	256.270833	1	obsgroup
obs304	167.625000	1	obsgroup
obs305	83.045833	1	obsgroup
obs306	79.800000	1	obsgroup
obs307	65.565625	1	obsgroup
obs308	60.000000	1	obsgroup
obs309	60.000000	1	obsgroup
obs310	53.890625	1	obsgroup
obs311	169.627000	1	obsgroup
obs312	286.718750	1	obsgroup
obs313	287.000000	1	obsgroup
obs314	289.312500	1	obsgroup
obs315	338.145833	1	obsgroup
obs316	384.770833	1	obsgroup
obs317	232.375000	1	obsgroup
obs318	165.156250	1	obsgroup
obs319	132.000000	1	obsgroup
obs320	133.812500	1	obsgroup
obs321	135.177083	1	obsgroup
obs322	292.656250	1	obsgroup
obs323	427.583333	1	obsgroup
obs324	424.000000	1	obsgroup
obs325	419.083333	1	obsgroup
obs326	335.479167	1	obsgroup
obs327	532.239583	1	obsgroup
obs328	484.010417	1	obsgroup
obs329	295.666667	1	obsgroup
obs330	243.906250	1	obsgroup
obs331	304.958333	1	obsgroup
obs332	502.041667	1	obsgroup
obs333	0.000000	0	obsgroup
obs334	447.916667	1	obsgroup
obs335	501.239583	1	obsgroup
obs336	722.416667	1	obsgroup
obs337	672.864583	1	obsgroup
obs338	463.156250	1	obsgroup
obs339	411.208333	1	obsgroup
obs340	328.677083	1	obsgroup
obs341	268.843750	1	obsgroup
obs342	221.281250	1	obsgroup
obs343	340.708333	1	obsgroup
obs344	499.000000	1	obsgroup
obs345	503.458333	1	obsgroup
obs346	523.802083	1	obsgroup
obs347	537.958333	1	obsgroup
obs348	564.958333	1	obsgroup
obs349	583.968750	1	obsgroup
obs350	835.333333	1	obsgroup
obs351	903.312500	1	obsgroup
obs352	902.052083	1	obsgroup
obs353	942.718750	1	obsgroup
obs354	952.177083	1	obsgroup
obs355	843.843750	1	obsgroup
obs356	705.968750	1	obsgroup
obs357	702.250000	1	obsgroup
obs358	606.572917	1	obsgroup
obs359	427.125000	1	obsgroup
obs360	389.156250	1	obsgroup
obs361	538.958333	1	obsgroup
obs362	632.979167	1	obsgroup
obs363	906.947917	1	obsgroup
obs364	1005.312500	1	obsgroup
obs365	989.166667	1	obsgroup
obs366	964.614583	1	obsgroup
obs367	766.197917	1	obsgroup
obs368	510.875000	1	obsgroup
obs369	420.343750	1	obsgroup
obs370	343.000000	1	obsgroup
obs371	337.229167	1	obsgroup
obs372	319.468750	1	obsgroup
obs373	315.000000	1	obsgroup
obs374	315.000000	1	obsgroup
obs375	251.645833	1	obsgroup
obs376	243.875000	1	obsgroup
obs377	250.531250	1	obsgroup
obs378	281.229167	1	obsgroup
obs379	497.375000	1	obsgroup
obs380	513.291667	1	obsgroup
obs381	548.666667	1	obsgroup
obs382	598.416667	1	obsgroup
obs383	694.343750	1	obsgroup
obs384	1025.520833	1	obsgroup
obs385	1016.875000	1	obsgroup
obs386	1004.531250	1	obsgroup
obs387	1001.458333	1	obsgroup
obs388	857.312500	1	obsgroup
obs389	616.177083	1	obsgroup
obs390	375.520833	1	obsgroup
obs391	321.000000	1	obsgroup
obs392	321.000000	1	obsgroup
obs393	321.000000	1	obsgroup
obs394	319.656250	1	obsgroup
obs395	318.000000	1	obsgroup
obs396	264.666667	1	obsgroup
obs397	243.000000	1	obsgroup
obs398	242.562500	1	obsgroup
obs399	209.489583	1	obsgroup
obs400	139.031250	1	obsgroup
obs401	119.000000	1	obsgroup
obs402	119.000000	1	obsgroup
obs403	114.333333	1	obsgroup
obs404	111.000000	1	obsgroup
obs405	111.000000	1	obsgroup
obs406	111.000000	1	obsgroup
obs407	111.000000	1	obsgroup
obs408	111.000000	1	obsgroup
obs409	111.000000	1	obsgroup
obs410	111.062500	1	obsgroup
obs411	122.166667	1	obsgroup
obs412	126.875000	1	obsgroup
obs413	200.833333	1	obsgroup
obs414	418.458333	1	obsgroup
obs415	505.583333	1	obsgroup
obs416	503.166667	1	obsgroup
obs417	500.291667	1	obsgroup
obs418	498.541667	1	obsgroup
obs419	449.718750	1	obsgroup
obs420	366.687500	1	obsgroup
obs421	323.031250	1	obsgroup
obs422	311.000000	1	obsgroup
obs423	279.656250	1	obsgroup
obs424	190.604167	1	obsgroup
obs425	243.895833	1	obsgroup
obs426	263.687500	1	obsgroup
obs427	370.197917	1	obsgroup
obs428	511.666667	1	obsgroup
obs429	704.229167	1	obsgroup
obs430	760.125000	1	obsgroup
obs431	554.989583	1	obsgroup
obs432	532.000000	1	obsgroup
obs433	535.333333	1	obsgroup
obs434	673.322917	1	obsgroup
obs435	1020.000000	1	obsgroup
obs436	1014.791667	1	obsgroup
obs437	1010.000000	1	obsgroup
obs438	877.020833	1	obsgroup
obs439	833.114583	1	obsgroup
obs440	839.104167	1	obsgroup
obs441	845.000000	1	obsgroup
obs442	775.479167	1	obsgroup
obs443	652.541667	1	obsgroup
obs444	575.937500	1	obsgroup
obs445	506.989583	1	obsgroup
obs446	453.916667	1	obsgroup
obs447	370.677083	1	obsgroup
obs448	318.000000	1	obsgroup
obs449	318.000000	1	obsgroup
obs450	320.250000	1	obsgroup
obs451	378.135417	1	obsgroup
obs452	533.937500	1	obsgroup
obs453	615.333333	1	obsgroup
obs454	618.000000	1	obsgroup
obs455	618.000000	1	obsgroup
obs456	597.135417	1	obsgroup
obs457	414.718750	1	obsgroup
obs458	379.000000	1	obsgroup
obs459	379.000000	1	obsgroup
obs460	383.062500	1	obsgroup
obs461	491.312500	1	obsgroup
obs462	618.000000	1	obsgroup
obs463	618.000000	1	obsgroup
obs464	615.041667	1	obsgroup
obs465	610.875000	1	obsgroup
obs466	549.312500	1	obsgroup
obs467	523.000000	1	obsgroup
obs468	523.000000	1	obsgroup
obs469	480.375000	1	obsgroup
obs470	471.000000	1	obsgroup
obs471	510.395833	1	obsgroup
obs472	1013.104167	1	obsgroup
obs473	1001.041667	1	obsgroup
obs474	603.500000	1	obsgroup
obs475	441.458333	1	obsgroup
obs476	419.302083	1	obsgroup
obs477	291.052083	1	obsgroup
obs478	207.791667	1	obsgroup
obs479	143.760417	1	obsgroup
obs480	144.135417	1	obsgroup
obs481	346.812500	1	obsgroup
obs482	350.000000	1	obsgroup
obs483	320.937500	1	obsgroup
obs484	347.572917	1	obsgroup
obs485	459.000000	1	obsgroup
obs486	459.000000	1	obsgroup
obs487	446.968750	1	obsgroup
obs488	354.343750	1	obsgroup
obs489	244.875000	1	obsgroup
obs490	188.000000	1	obsgroup
obs491	154.458333	1	obsgroup
obs492	139.000000	1	obsgroup
obs493	139.833333	1	obsgroup
obs494	127.729167	1	obsgroup
obs495	104.710417	1	obsgroup
obs496	98.800000	1	obsgroup
obs497	98.800000	1	obsgroup
obs498	98.800000	1	obsgroup
obs499	98.800000	1	obsgroup
obs500	98.800000	1	obsgroup
obs501	98.800000	1	obsgroup
obs502	98.800000	1	obsgroup
obs503	136.410417	1	obsgroup
obs504	143.000000	1	obsgroup
obs505	178.635417	1	obsgroup
obs506	180.000000	1	obsgroup
obs507	180.000000	1	obsgroup
obs508	180.000000	1	obsgroup
obs509	180.000000	1	obsgroup
obs510	311.635417	1	obsgroup
obs511	324.510417	1	obsgroup
obs512	251.145833	1	obsgroup
obs513	359.000000	1	obsgroup
obs514	359.000000	1	obsgroup
obs515	359.000000	1	obsgroup
obs516	392.364583	1	obsgroup
obs517	520.625000	1	obsgroup
obs518	439.593750	1	obsgroup
obs519	391.645833	1	obsgroup
obs520	363.250000	1	obsgroup
obs521	330.000000	1	obsgroup
obs522	274.291667	1	obsgroup
obs523	213.791667	1	obsgroup
obs524	185.000000	1	obsgroup
obs525	185.000000	1	obsgroup
obs526	185.000000	1	obsgroup
obs527	148.583333	1	obsgroup
obs528	143.000000	1	obsgroup
obs529	178.062500	1	obsgroup
obs530	165.052083	1	obsgroup
obs531	143.000000	1	obsgroup
obs532	136.885417	1	obsgroup
obs533	96.757292	1	obsgroup
obs534	85.400000	1	obsgroup
obs535	85.400000	1	obsgroup
obs536	85.400000	1	obsgroup
obs537	84.331250	1	obsgroup
obs538	83.500000	1	obsgroup
obs539	83.500000	1	obsgroup
obs540	83.500000	1	obsgroup
obs541	69.083333	1	obsgroup
obs542	61.800000	1	obsgroup
obs543	61.800000	1	obsgroup
obs544	61.853125	1	obsgroup
obs545	61.800000	1	obsgroup
obs546	61.800000	1	obsgroup
obs547	61.800000	1	obsgroup
obs548	61.800000	1	obsgroup
obs549	61.800000	1	obsgroup
obs550	61.800000	1	obsgroup
obs551	61.800000	1	obsgroup
obs552	61.800000	1	obsgroup
obs553	61.800000	1	obsgroup
obs554	54.255208	1	obsgroup
obs555	49.900000	1	obsgroup
obs556	49.900000	1	obsgroup
obs557	49.900000	1	obsgroup
obs558	50.891667	1	obsgroup
obs559	51.600000	1	obsgroup
obs560	51.600000	1	obsgroup
obs561	51.600000	1	obsgroup
obs562	51.600000	1	obsgroup
obs563	51.600000	1	obsgroup
obs564	51.600000	1	obsgroup
obs565	201.294792	1	obsgroup
obs566	239.020833	1	obsgroup
obs567	141.468750	1	obsgroup
obs568	95.354167	1	obsgroup
obs569	67.957292	1	obsgroup
obs570	53.955208	1	obsgroup
obs571	48.200000	1	obsgroup
obs572	48.200000	1	obsgroup
obs573	48.200000	1	obsgroup
obs574	48.200000	1	obsgroup
obs575	48.200000	1	obsgroup
obs576	48.200000	1	obsgroup
obs577	48.200000	1	obsgroup
obs578	48.200000	1	obsgroup
obs579	48.200000	1	obsgroup
obs580	48.200000	1	obsgroup
obs581	48.200000	1	obsgroup
obs582	48.200000	1	obsgroup
obs583	48.200000	1	obsgroup
obs584	49.404167	1	obsgroup
obs585	49.900000	1	obsgroup
obs586	49.900000	1	obsgroup
obs587	49.900000	1	obsgroup
obs588	49.900000	1	obsgroup
obs589	49.900000	1	obsgroup
obs590	49.900000	1	obsgroup
obs591	49.900000	1	obsgroup
obs592	49.900000	1	obsgroup
obs593	49.900000	1	obsgroup
obs594	49.900000	1	obsgroup
obs595	49.900000	1	obsgroup
obs596	49.900000	1	obsgroup
obs597	49.900000	1	obsgroup
obs598	49.900000	1	obsgroup
obs599	49.900000	1	obsgroup
obs600	49.900000	1	obsgroup
obs601	49.900000	1	obsgroup
obs602	49.900000	1	obsgroup
obs603	49.900000	1	obsgroup
obs604	49.900000	1	obsgroup
obs605	49.900000	1	obsgroup
obs606	49.900000	1	obsgroup
obs607	49.900000	1	obsgroup
obs608	49.900000	1	obsgroup
obs609	54.466667	1	obsgroup
obs610	58.300000	1	obsgroup
obs611	58.300000	1	obsgroup
obs612	58.300000	1	obsgroup
obs613	119.987500	1	obsgroup
obs614	205.302083	1	obsgroup
obs615	237.000000	1	obsgroup
obs616	235.531250	1	obsgroup
obs617	234.000000	1	obsgroup
obs618	234.000000	1	obsgroup
obs619	233.781250	1	obsgroup
obs620	231.000000	1	obsgroup
obs621	231.000000	1	obsgroup
obs622	231.000000	1	obsgroup
obs623	232.031250	1	obsgroup
obs624	239.500000	1	obsgroup
obs625	246.000000	1	obsgroup
obs626	245.125000	1	obsgroup
obs627	243.031250	1	obsgroup
obs628	243.000000	1	obsgroup
obs629	243.000000	1	obsgroup
obs630	260.562500	1	obsgroup
obs631	279.781250	1	obsgroup
obs632	289.968750	1	obsgroup
obs633	289.437500	1	obsgroup
obs634	287.000000	1	obsgroup
obs635	286.250000	1	obsgroup
obs636	284.000000	1	obsgroup
obs637	283.468750	1	obsgroup
obs638	281.000000	1	obsgroup
obs639	281.000000	1	obsgroup
obs640	281.000000	1	obsgroup
obs641	279.687500	1	obsgroup
obs642	278.000000	1	obsgroup
obs643	285.218750	1	obsgroup
obs644	304.625000	1	obsgroup
obs645	301.906250	1	obsgroup
obs646	299.000000	1	obsgroup
obs647	297.718750	1	obsgroup
obs648	296.000000	1	obsgroup
obs649	294.531250	1	obsgroup
obs650	293.000000	1	obsgroup
obs651	291.437500	1	obsgroup
obs652	288.750000	1	obsgroup
obs653	286.750000	1	obsgroup
obs654	284.000000	1	obsgroup
obs655	281.906250	1	obsgroup
obs656	280.625000	1	obsgroup
obs657	277.625000	1	obsgroup
obs658	274.625000	1	obsgroup
obs659	271.875000	1	obsgroup
obs660	266.000000	1	obsgroup
obs661	264.281250	1	obsgroup
obs662	260.562500	1	obsgroup
obs663	235.937500	1	obsgroup
obs664	179.322917	1	obsgroup
obs665	119.992708	1	obsgroup
obs666	91.100000	1	obsgroup
obs667	91.100000	1	obsgroup
obs668	91.100000	1	obsgroup
obs669	91.100000	1	obsgroup
obs670	61.231250	1	obsgroup
obs671	58.300000	1	obsgroup
obs672	58.300000	1	obsgroup
obs673	79.280208	1	obsgroup
obs674	80.493750	1	obsgroup
obs675	79.800000	1	obsgroup
obs676	79.800000	1	obsgroup
obs677	79.800000	1	obsgroup
obs678	79.800000	1	obsgroup
obs679	79.800000	1	obsgroup
obs680	79.602083	1	obsgroup
obs681	78.256250	1	obsgroup
obs682	83.891667	1	obsgroup
obs683	81.317708	1	obsgroup
obs684	65.300000	1	obsgroup
obs685	64.981250	1	obsgroup
obs686	65.567708	1	obsgroup
obs687	234.083333	1	obsgroup
obs688	261.541667	1	obsgroup
obs689	136.312500	1	obsgroup
obs690	91.057292	1	obsgroup
obs691	153.609375	1	obsgroup
obs692	224.708333	1	obsgroup
obs693	355.333333	1	obsgroup
obs694	351.750000	1	obsgroup
obs695	331.406250	1	obsgroup
obs696	208.729167	1	obsgroup
obs697	167.322917	1	obsgroup
obs698	118.000000	1	obsgroup
obs699	113.000000	1	obsgroup
obs700	109.112500	1	obsgroup
obs701	88.725000	1	obsgroup
obs702	79.065625	1	obsgroup
obs703	68.233333	1	obsgroup
obs704	61.682292	1	obsgroup
obs705	60.000000	1	obsgroup
obs706	60.000000	1	obsgroup
obs707	56.763542	1	obsgroup
obs708	54.900000	1	obsgroup
obs709	54.900000	1	obsgroup
obs710	54.900000	1	obsgroup
obs711	54.900000	1	obsgroup
obs712	54.900000	1	obsgroup
obs713	53.323958	1	obsgroup
obs714	57.910417	1	obsgroup
obs715	58.300000	1	obsgroup
obs716	58.300000	1	obsgroup
obs717	58.300000	1	obsgroup
obs718	56.989583	1	obsgroup
obs719	56.600000	1	obsgroup
obs720	56.600000	1	obsgroup
obs721	56.600000	1	obsgroup
obs722	56.600000	1	obsgroup
obs723	56.600000	1	obsgroup
obs724	56.600000	1	obsgroup
obs725	56.600000	1	obsgroup
obs726	55.537500	1	obsgroup
obs727	57.715625	1	obsgroup
obs728	62.159375	1	obsgroup
obs729	81.506250	1	obsgroup
obs730	79.198958	1	obsgroup
obs731	462.751042	1	obsgroup
obs732	699.843750	1	obsgroup
obs733	691.500000	1	obsgroup
obs734	693.260417	1	obsgroup
obs735	674.104167	1	obsgroup
obs736	508.833333	1	obsgroup
obs737	465.979167	1	obsgroup
obs738	227.156250	1	obsgroup
obs739	96.147917	1	obsgroup
obs740	60.000000	1	obsgroup
obs741	60.000000	1	obsgroup
obs742	60.000000	1	obsgroup
obs743	80.525000	1	obsgroup
obs744	107.000000	1	obsgroup
obs745	107.000000	1	obsgroup
obs746	107.000000	1	obsgroup
obs747	107.000000	1	obsgroup
obs748	200.645833	1	obsgroup
obs749	175.114583	1	obsgroup
obs750	60.547917	1	obsgroup
obs751	1864.101042	1	obsgroup
obs752	2442.604167	1	obsgroup
obs753	2380.312500	1	obsgroup
obs754	2300.520833	1	obsgroup
obs755	2150.729167	1	obsgroup
obs756	1759.479167	1	obsgroup
obs757	1321.979167	1	obsgroup
obs758	853.906250	1	obsgroup
obs759	530.656250	1	obsgroup
obs760	517.593750	1	obsgroup
obs761	502.843750	1	obsgroup
obs762	415.177083	1	obsgroup
obs763	388.572917	1	obsgroup
obs764	316.947917	1	obsgroup
obs765	219.635417	1	obsgroup
obs766	180.135417	1	obsgroup
obs767	162.000000	1	obsgroup
obs768	127.885417	1	obsgroup
obs769	114.770833	1	obsgroup
obs770	117.000000	1	obsgroup
obs771	117.500000	1	obsgroup
obs772	116.791667	1	obsgroup
obs773	115.000000	1	obsgroup
obs774	115.000000	1	obsgroup
obs775	111.104167	1	obsgroup
obs776	109.000000	1	obsgroup
obs777	109.000000	1	obsgroup
obs778	109.416667	1	obsgroup
obs779	111.000000	1	obsgroup
obs780	111.270833	1	obsgroup
obs781	113.604167	1	obsgroup
obs782	351.916667	1	obsgroup
obs783	441.729167	1	obsgroup
obs784	409.000000	1	obsgroup
obs785	337.197917	1	obsgroup
obs786	302.437500	1	obsgroup
obs787	324.343750	1	obsgroup
obs788	327.000000	1	obsgroup
obs789	266.093750	1	obsgroup
obs790	242.552083	1	obsgroup
obs791	431.770833	1	obsgroup
obs792	639.239583	1	obsgroup
obs793	634.552083	1	obsgroup
obs794	512.635417	1	obsgroup
obs795	488.385417	1	obsgroup
obs796	596.020833	1	obsgroup
obs797	591.145833	1	obsgroup
obs798	558.083333	1	obsgroup
obs799	515.000000	1	obsgroup
obs800	456.593750	1	obsgroup
obs801	388.293478	1	obsgroup
obs802	372.781250	1	obsgroup
obs803	376.895833	1	obsgroup
obs804	763.906250	1	obsgroup
obs805	1078.854167	1	obsgroup
obs806	1385.729167	1	obsgroup
obs807	1412.083333	1	obsgroup
obs808	967.354167	1	obsgroup
obs809	857.427083	1	obsgroup
obs810	1270.208333	1	obsgroup
obs811	1130.575758	1	obsgroup
obs812	670.896907	1	obsgroup
obs813	1519.270833	1	obsgroup
obs814	1505.000000	1	obsgroup
obs815	1485.937500	1	obsgroup
obs816	1295.408163	1	obsgroup
obs817	1107.187500	1	obsgroup
obs818	1591.855670	1	obsgroup
obs819	2478.958333	1	obsgroup
obs820	1329.938144	1	obsgroup
obs821	592.833333	1	obsgroup
obs822	1254.540816	1	obsgroup
obs823	1513.020833	1	obsgroup
obs824	1499.583333	1	obsgroup
obs825	1256.632653	1	obsgroup
obs826	828.428571	1	obsgroup
obs827	492.687500	1	obsgroup
obs828	298.583333	1	obsgroup
obs829	243.000000	1	obsgroup
obs830	243.000000	1	obsgroup
obs831	261.739583	1	obsgroup
obs832	269.000000	1	obsgroup
obs833	268.966292	1	obsgroup
obs834	285.375000	1	obsgroup
obs835	321.000000	1	obsgroup
obs836	321.000000	1	obsgroup
obs837	487.364583	1	obsgroup
obs838	595.427083	1	obsgroup
obs839	522.278351	1	obsgroup
obs840	417.427083	1	obsgroup
obs841	358.593750	1	obsgroup
obs842	312.156250	1	obsgroup
obs843	260.656250	1	obsgroup
obs844	262.093750	1	obsgroup
obs845	203.340206	1	obsgroup
obs846	150.851064	1	obsgroup
obs847	141.020833	1	obsgroup
obs848	141.479167	1	obsgroup
obs849	181.989691	1	obsgroup
obs850	181.130000	1	obsgroup
obs851	203.255102	1	obsgroup
obs852	220.000000	1	obsgroup
obs853	299.854167	1	obsgroup
obs854	383.000000	1	obsgroup
obs855	383.000000	1	obsgroup
obs856	362.197917	1	obsgroup
obs857	292.322917	1	obsgroup
obs858	212.750000	1	obsgroup
obs859	146.958333	1	obsgroup
obs860	96.326042	1	obsgroup
obs861	78.623958	1	obsgroup
obs862	67.100000	1	obsgroup
obs863	66.162500	1	obsgroup
obs864	65.300000	1	obsgroup
obs865	65.300000	1	obsgroup
obs866	65.300000	1	obsgroup
obs867	65.300000	1	obsgroup
obs868	59.182558	1	obsgroup
obs869	56.600000	1	obsgroup
obs870	56.600000	1	obsgroup
obs871	56.600000	1	obsgroup
obs872	73.775000	1	obsgroup
obs873	90.427083	1	obsgroup
obs874	128.851546	1	obsgroup
obs875	118.628866	1	obsgroup
obs876	436.666667	1	obsgroup
obs877	431.166667	1	obsgroup
obs878	356.686869	1	obsgroup
obs879	253.103093	1	obsgroup
obs880	189.333333	1	obsgroup
obs881	185.000000	1	obsgroup
obs882	185.000000	1	obsgroup
obs883	171.197917	1	obsgroup
obs884	162.000000	1	obsgroup
obs885	162.125000	1	obsgroup
obs886	221.093750	1	obsgroup
obs887	356.000000	1	obsgroup
obs888	350.729167	1	obsgroup
obs889	299.000000	1	obsgroup
obs890	244.930693	1	obsgroup
obs891	240.000000	1	obsgroup
obs892	221.802083	1	obsgroup
obs893	193.572917	1	obsgroup
obs894	176.958333	1	obsgroup
obs895	177.000000	1	obsgroup
obs896	177.000000	1	obsgroup
obs897	118.575000	1	obsgroup
obs898	96.900000	1	obsgroup
obs899	103.502083	1	obsgroup
obs900	117.000000	1	obsgroup
obs901	117.000000	1	obsgroup
obs902	102.752577	1	obsgroup
obs903	101.000000	1	obsgroup
obs904	117.791667	1	obsgroup
obs905	200.443299	1	obsgroup
obs906	237.000000	1	obsgroup
obs907	237.000000	1	obsgroup
obs908	235.031250	1	obsgroup
obs909	210.350515	1	obsgroup
obs910	122.114583	1	obsgroup
obs911	104.375000	1	obsgroup
obs912	105.000000	1	obsgroup
obs913	91.682292	1	obsgroup
obs914	85.400000	1	obsgroup
obs915	85.400000	1	obsgroup
obs916	72.600000	1	obsgroup
obs917	60.000000	1	obsgroup
obs918	51.588542	1	obsgroup
obs919	48.200000	1	obsgroup
obs920	48.200000	1	obsgroup
obs921	48.200000	1	obsgroup
obs922	48.200000	1	obsgroup
obs923	48.200000	1	obsgroup
obs924	48.200000	1	obsgroup
obs925	48.200000	1	obsgroup
obs926	48.200000	1	obsgroup
obs927	48.200000	1	obsgroup
obs928	48.200000	1	obsgroup
obs929	47.416667	1	obsgroup
obs930	46.766667	1	obsgroup
obs931	46.900000	1	obsgroup
obs932	46.833333	1	obsgroup
obs933	46.600000	1	obsgroup
obs934	46.600000	1	obsgroup
obs935	46.600000	1	obsgroup
obs936	46.600000	1	obsgroup
obs937	46.600000	1	obsgroup
obs938	46.600000	1	obsgroup
obs939	46.600000	1	obsgroup
obs940	46.600000	1	obsgroup
obs941	46.600000	1	obsgroup
obs942	46.600000	1	obsgroup
obs943	46.600000	1	obsgroup
obs944	52.403846	1	obsgroup
obs945	51.600000	1	obsgroup
obs946	51.600000	1	obsgroup
obs947	51.387500	1	obsgroup
obs948	49.900000	1	obsgroup
obs949	49.900000	1	obsgroup
obs950	49.900000	1	obsgroup
obs951	49.900000	1	obsgroup
obs952	50.803125	1	obsgroup
obs953	51.600000	1	obsgroup
obs954	51.600000	1	obsgroup
obs955	51.600000	1	obsgroup