pcf
* control data
restart  estimation
    8  3287     8     0     1
    1     1 single point   1   0   0
  5.0   2.0   0.3  0.03    10  999  lamforgive  derforgive
  3.0   3.0 0.001  0
  0.1
   30  0.01     3     3  0.01     3
    1     1     1     1
* parameter groups
fc           relative 0.01  0.0  switch  2.0 parabolic
beta         relative 0.01  0.0  switch  2.0 parabolic
perc         relative 0.01  0.0  switch  2.0 parabolic
uzl          relative 0.01  0.0  switch  2.0 parabolic
k0           relative 0.01  0.0  switch  2.0 parabolic
k1           relative 0.01  0.0  switch  2.0 parabolic
k2           relative 0.01  0.0  switch  2.0 parabolic
et_mult      relative 0.01  0.0  switch  2.0 parabolic
* parameter data
fc           none relative   191.49       50.000000  600.000000      fc              1.0000        0.0000      1
beta         none relative   2.244        1.000000    6.000000       beta            1.0000        0.0000      1
perc         none relative   0.191        0.000100    0.500000       perc            1.0000        0.0000      1
uzl          none relative   1.365        0.100000   75.000000       uzl             1.0000        0.0000      1
k0           none relative   0.534        0.050000    0.700000       k0              1.0000        0.0000      1
k1           none relative   0.279        0.010000    0.400000       k1              1.0000        0.0000      1
k2           none relative   0.061	  0.000100    0.150000       k2              1.0000        0.0000      1
et_mult      none relative   1            0.100000    10.00000       et_mult         1.0000        0.0000      1
* observation groups
obsgroup
* observation data
obs1	1098.428571	1	obsgroup
obs2	751.230769	1	obsgroup
obs3	500.529412	1	obsgroup
obs4	362.948718	1	obsgroup
obs5	328.880342	1	obsgroup
obs6	627.974576	1	obsgroup
obs7	485.948718	1	obsgroup
obs8	373.863248	1	obsgroup
obs9	302.110169	1	obsgroup
obs10	246.728814	1	obsgroup
obs11	212.436975	1	obsgroup
obs12	211.142857	1	obsgroup
obs13	232.555556	1	obsgroup
obs14	286.000000	1	obsgroup
obs15	246.646552	1	obsgroup
obs16	374.127119	1	obsgroup
obs17	442.669565	1	obsgroup
obs18	430.000000	1	obsgroup
obs19	331.321429	1	obsgroup
obs20	260.096491	1	obsgroup
obs21	219.209091	1	obsgroup
obs22	190.000000	1	obsgroup
obs23	163.598214	1	obsgroup
obs24	164.189655	1	obsgroup
obs25	218.629310	1	obsgroup
obs26	204.061947	1	obsgroup
obs27	177.481132	1	obsgroup
obs28	160.822034	1	obsgroup
obs29	144.792793	1	obsgroup
obs30	143.643478	1	obsgroup
obs31	146.842105	1	obsgroup
obs32	153.576271	1	obsgroup
obs33	173.415254	1	obsgroup
obs34	170.948718	1	obsgroup
obs35	181.898305	1	obsgroup
obs36	172.556522	1	obsgroup
obs37	161.059322	1	obsgroup
obs38	158.379310	1	obsgroup
obs39	144.452991	1	obsgroup
obs40	133.043103	1	obsgroup
obs41	124.819820	1	obsgroup
obs42	146.412844	1	obsgroup
obs43	232.622807	1	obsgroup
obs44	222.318584	1	obsgroup
obs45	212.834783	1	obsgroup
obs46	201.473684	1	obsgroup
obs47	211.702703	1	obsgroup
obs48	196.466102	1	obsgroup
obs49	175.573913	1	obsgroup
obs50	156.448598	1	obsgroup
obs51	138.351852	1	obsgroup
obs52	123.000000	1	obsgroup
obs53	112.991150	1	obsgroup
obs54	111.035398	1	obsgroup
obs55	143.638655	1	obsgroup
obs56	173.000000	1	obsgroup
obs57	179.061404	1	obsgroup
obs58	176.626087	1	obsgroup
obs59	153.570175	1	obsgroup
obs60	136.035088	1	obsgroup
obs61	124.256410	1	obsgroup
obs62	122.589744	1	obsgroup
obs63	120.728814	1	obsgroup
obs64	111.716814	1	obsgroup
obs65	103.268750	1	obsgroup
obs66	96.652294	1	obsgroup
obs67	113.880180	1	obsgroup
obs68	102.968687	1	obsgroup
obs69	102.070874	1	obsgroup
obs70	138.505405	1	obsgroup
obs71	318.566372	1	obsgroup
obs72	289.633929	1	obsgroup
obs73	218.094340	1	obsgroup
obs74	186.071429	1	obsgroup
obs75	173.266055	1	obsgroup
obs76	158.205882	1	obsgroup
obs77	141.386792	1	obsgroup
obs78	128.009091	1	obsgroup
obs79	117.946903	1	obsgroup
obs80	124.733945	1	obsgroup
obs81	138.740385	1	obsgroup
obs82	123.027523	1	obsgroup
obs83	114.400000	1	obsgroup
obs84	166.909910	1	obsgroup
obs85	383.973684	1	obsgroup
obs86	321.414414	1	obsgroup
obs87	287.373832	1	obsgroup
obs88	1226.442478	1	obsgroup
obs89	1225.068966	1	obsgroup
obs90	761.141593	1	obsgroup
obs91	509.757282	1	obsgroup
obs92	590.831858	1	obsgroup
obs93	589.111111	1	obsgroup
obs94	444.045872	1	obsgroup
obs95	370.826923	1	obsgroup
obs96	347.864865	1	obsgroup
obs97	336.383178	1	obsgroup
obs98	361.261682	1	obsgroup
obs99	311.760000	1	obsgroup
obs100	270.963636	1	obsgroup
obs101	265.685714	1	obsgroup
obs102	267.233010	1	obsgroup
obs103	310.242991	1	obsgroup
obs104	351.620370	1	obsgroup
obs105	478.945455	1	obsgroup
obs106	396.394495	1	obsgroup
obs107	330.846847	1	obsgroup
obs108	281.981481	1	obsgroup
obs109	246.908257	1	obsgroup
obs110	256.640351	1	obsgroup
obs111	400.518182	1	obsgroup
obs112	304.572727	1	obsgroup
obs113	247.463636	1	obsgroup
obs114	230.241071	1	obsgroup
obs115	194.111111	1	obsgroup
obs116	177.793103	1	obsgroup
obs117	587.660377	1	obsgroup
obs118	680.851852	1	obsgroup
obs119	667.377193	1	obsgroup
obs120	665.128205	1	obsgroup
obs121	534.561404	1	obsgroup
obs122	431.283186	1	obsgroup
obs123	479.742857	1	obsgroup
obs124	483.553571	1	obsgroup
obs125	391.960784	1	obsgroup
obs126	312.289720	1	obsgroup
obs127	257.839286	1	obsgroup
obs128	219.078947	1	obsgroup
obs129	190.651786	1	obsgroup
obs130	184.837838	1	obsgroup
obs131	180.175439	1	obsgroup
obs132	161.044248	1	obsgroup
obs133	145.973451	1	obsgroup
obs134	131.927273	1	obsgroup
obs135	120.954128	1	obsgroup
obs136	113.750000	1	obsgroup
obs137	108.270270	1	obsgroup
obs138	118.558559	1	obsgroup
obs139	142.290909	1	obsgroup
obs140	205.845455	1	obsgroup
obs141	199.525862	1	obsgroup
obs142	215.375000	1	obsgroup
obs143	230.817391	1	obsgroup
obs144	210.815789	1	obsgroup
obs145	197.422414	1	obsgroup
obs146	244.566372	1	obsgroup
obs147	274.513274	1	obsgroup
obs148	291.500000	1	obsgroup
obs149	233.509259	1	obsgroup
obs150	196.900000	1	obsgroup
obs151	212.338983	1	obsgroup
obs152	202.880342	1	obsgroup
obs153	712.920354	1	obsgroup
obs154	983.241379	1	obsgroup
obs155	1394.818182	1	obsgroup
obs156	1051.815789	1	obsgroup
obs157	672.495652	1	obsgroup
obs158	468.991304	1	obsgroup
obs159	348.110092	1	obsgroup
obs160	352.284483	1	obsgroup
obs161	481.451327	1	obsgroup
obs162	565.844828	1	obsgroup
obs163	427.833333	1	obsgroup
obs164	323.283186	1	obsgroup
obs165	257.563636	1	obsgroup
obs166	216.368421	1	obsgroup
obs167	195.743590	1	obsgroup
obs168	175.414414	1	obsgroup
obs169	152.144144	1	obsgroup
obs170	136.646018	1	obsgroup
obs171	127.271930	1	obsgroup
obs172	118.481481	1	obsgroup
obs173	106.591071	1	obsgroup
obs174	96.524324	1	obsgroup
obs175	87.977876	1	obsgroup
obs176	81.120175	1	obsgroup
obs177	74.936283	1	obsgroup
obs178	68.995575	1	obsgroup
obs179	64.769643	1	obsgroup
obs180	62.388288	1	obsgroup
obs181	59.103571	1	obsgroup
obs182	54.937838	1	obsgroup
obs183	60.372414	1	obsgroup
obs184	58.179130	1	obsgroup
obs185	50.468468	1	obsgroup
obs186	47.200000	1	obsgroup
obs187	44.633043	1	obsgroup
obs188	40.961261	1	obsgroup
obs189	37.719469	1	obsgroup
obs190	35.139091	1	obsgroup
obs191	32.696460	1	obsgroup
obs192	31.808036	1	obsgroup
obs193	31.692727	1	obsgroup
obs194	31.373148	1	obsgroup
obs195	29.597414	1	obsgroup
obs196	27.948649	1	obsgroup
obs197	26.471429	1	obsgroup
obs198	25.540909	1	obsgroup
obs199	25.150000	1	obsgroup
obs200	24.900000	1	obsgroup
obs201	24.142982	1	obsgroup
obs202	23.500935	1	obsgroup
obs203	22.556757	1	obsgroup
obs204	21.384071	1	obsgroup
obs205	20.453097	1	obsgroup
obs206	19.033333	1	obsgroup
obs207	18.079817	1	obsgroup
obs208	17.528829	1	obsgroup
obs209	17.197222	1	obsgroup
obs210	16.882906	1	obsgroup
obs211	16.343750	1	obsgroup
obs212	16.146018	1	obsgroup
obs213	16.473214	1	obsgroup
obs214	16.013393	1	obsgroup
obs215	15.315315	1	obsgroup
obs216	15.051402	1	obsgroup
obs217	14.844340	1	obsgroup
obs218	14.233028	1	obsgroup
obs219	13.604386	1	obsgroup
obs220	13.486364	1	obsgroup
obs221	13.626126	1	obsgroup
obs222	13.896262	1	obsgroup
obs223	13.352475	1	obsgroup
obs224	12.737736	1	obsgroup
obs225	12.065138	1	obsgroup
obs226	11.170175	1	obsgroup
obs227	10.477391	1	obsgroup
obs228	10.450459	1	obsgroup
obs229	10.043333	1	obsgroup
obs230	10.182162	1	obsgroup
obs231	10.515652	1	obsgroup
obs232	10.460000	1	obsgroup
obs233	10.137064	1	obsgroup
obs234	9.880442	1	obsgroup
obs235	9.854220	1	obsgroup
obs236	9.484818	1	obsgroup
obs237	8.803645	1	obsgroup
obs238	8.441237	1	obsgroup
obs239	8.749505	1	obsgroup
obs240	8.884000	1	obsgroup
obs241	8.735596	1	obsgroup
obs242	16.397091	1	obsgroup
obs243	15.494545	1	obsgroup
obs244	14.514545	1	obsgroup
obs245	15.856140	1	obsgroup
obs246	12.176923	1	obsgroup
obs247	10.506897	1	obsgroup
obs248	10.227265	1	obsgroup
obs249	9.770351	1	obsgroup
obs250	10.744828	1	obsgroup
obs251	17.965455	1	obsgroup
obs252	27.771681	1	obsgroup
obs253	21.990179	1	obsgroup
obs254	15.279130	1	obsgroup
obs255	13.041964	1	obsgroup
obs256	11.929630	1	obsgroup
obs257	11.448624	1	obsgroup
obs258	11.023636	1	obsgroup
obs259	11.067857	1	obsgroup
obs260	11.005882	1	obsgroup
obs261	15.747863	1	obsgroup
obs262	61.269565	1	obsgroup
obs263	93.593277	1	obsgroup
obs264	46.805310	1	obsgroup
obs265	31.368224	1	obsgroup
obs266	25.242308	1	obsgroup
obs267	23.181553	1	obsgroup
obs268	19.711818	1	obsgroup
obs269	17.837500	1	obsgroup
obs270	16.678261	1	obsgroup
obs271	15.776786	1	obsgroup
obs272	15.490566	1	obsgroup
obs273	14.939655	1	obsgroup
obs274	14.060870	1	obsgroup
obs275	14.000000	1	obsgroup
obs276	14.000000	1	obsgroup
obs277	14.228070	1	obsgroup
obs278	13.635398	1	obsgroup
obs279	13.197345	1	obsgroup
obs280	12.700000	1	obsgroup
obs281	12.656000	1	obsgroup
obs282	28.698230	1	obsgroup
obs283	54.194915	1	obsgroup
obs284	49.733333	1	obsgroup
obs285	30.600000	1	obsgroup
obs286	24.650000	1	obsgroup
obs287	20.451754	1	obsgroup
obs288	18.940000	1	obsgroup
obs289	18.011881	1	obsgroup
obs290	17.190654	1	obsgroup
obs291	16.625000	1	obsgroup
obs292	15.956897	1	obsgroup
obs293	15.103448	1	obsgroup
obs294	14.504386	1	obsgroup
obs295	16.618103	1	obsgroup
obs296	24.539823	1	obsgroup
obs297	185.527434	1	obsgroup
obs298	522.816514	1	obsgroup
obs299	475.285714	1	obsgroup
obs300	245.127119	1	obsgroup
obs301	174.368421	1	obsgroup
obs302	157.785714	1	obsgroup
obs303	129.471698	1	obsgroup
obs304	181.009091	1	obsgroup
obs305	144.390476	1	obsgroup
obs306	134.165138	1	obsgroup
obs307	116.086207	1	obsgroup
obs308	98.431897	1	obsgroup
obs309	85.756481	1	obsgroup
obs310	76.900000	1	obsgroup
obs311	268.928205	1	obsgroup
obs312	259.236842	1	obsgroup
obs313	224.495327	1	obsgroup
obs314	317.686957	1	obsgroup
obs315	252.794643	1	obsgroup
obs316	201.625000	1	obsgroup
obs317	166.175439	1	obsgroup
obs318	174.218487	1	obsgroup
obs319	170.931034	1	obsgroup
obs320	179.844037	1	obsgroup
obs321	183.940171	1	obsgroup
obs322	859.439655	1	obsgroup
obs323	576.512821	1	obsgroup
obs324	392.628319	1	obsgroup
obs325	299.557692	1	obsgroup
obs326	291.063636	1	obsgroup
obs327	286.715517	1	obsgroup
obs328	205.059829	1	obsgroup
obs329	168.814159	1	obsgroup
obs330	206.596639	1	obsgroup
obs331	421.579832	1	obsgroup
obs332	346.888889	1	obsgroup
obs333	288.419643	1	obsgroup
obs334	416.017391	1	obsgroup
obs335	864.205128	1	obsgroup
obs336	823.547009	1	obsgroup
obs337	656.171171	1	obsgroup
obs338	484.380000	1	obsgroup
obs339	383.045872	1	obsgroup
obs340	362.355140	1	obsgroup
obs341	344.379630	1	obsgroup
obs342	381.379630	1	obsgroup
obs343	523.956897	1	obsgroup
obs344	801.765766	1	obsgroup
obs345	932.279279	1	obsgroup
obs346	1141.551724	1	obsgroup
obs347	1306.465517	1	obsgroup
obs348	1607.090909	1	obsgroup
obs349	1040.894231	1	obsgroup
obs350	666.794393	1	obsgroup
obs351	465.218182	1	obsgroup
obs352	435.372727	1	obsgroup
obs353	383.666667	1	obsgroup
obs354	345.009434	1	obsgroup
obs355	301.716814	1	obsgroup
obs356	256.943396	1	obsgroup
obs357	217.105769	1	obsgroup
obs358	190.540541	1	obsgroup
obs359	183.008475	1	obsgroup
obs360	221.745763	1	obsgroup
obs361	286.912281	1	obsgroup
obs362	871.310345	1	obsgroup
obs363	1147.477876	1	obsgroup
obs364	662.193277	1	obsgroup
obs365	444.543860	1	obsgroup
obs366	339.325000	1	obsgroup
obs367	272.548673	1	obsgroup
obs368	229.100000	1	obsgroup
obs369	199.466102	1	obsgroup
obs370	179.634783	1	obsgroup
obs371	170.418803	1	obsgroup
obs372	169.811966	1	obsgroup
obs373	226.313559	1	obsgroup
obs374	200.310345	1	obsgroup
obs375	174.716814	1	obsgroup
obs376	157.521368	1	obsgroup
obs377	214.061404	1	obsgroup
obs378	405.190909	1	obsgroup
obs379	569.336449	1	obsgroup
obs380	579.822430	1	obsgroup
obs381	2306.785714	1	obsgroup
obs382	1536.754386	1	obsgroup
obs383	976.093220	1	obsgroup
obs384	928.150000	1	obsgroup
obs385	657.084746	1	obsgroup
obs386	486.070175	1	obsgroup
obs387	378.271930	1	obsgroup
obs388	300.791667	1	obsgroup
obs389	245.983051	1	obsgroup
obs390	207.500000	1	obsgroup
obs391	179.873950	1	obsgroup
obs392	158.811966	1	obsgroup
obs393	142.163793	1	obsgroup
obs394	128.974790	1	obsgroup
obs395	117.982759	1	obsgroup
obs396	107.221239	1	obsgroup
obs397	98.593913	1	obsgroup
obs398	91.936134	1	obsgroup
obs399	86.149153	1	obsgroup
obs400	81.663866	1	obsgroup
obs401	87.999160	1	obsgroup
obs402	85.548739	1	obsgroup
obs403	91.606957	1	obsgroup
obs404	101.819492	1	obsgroup
obs405	90.797273	1	obsgroup
obs406	85.038793	1	obsgroup
obs407	81.507759	1	obsgroup
obs408	78.645217	1	obsgroup
obs409	97.003361	1	obsgroup
obs410	101.110256	1	obsgroup
obs411	483.000000	1	obsgroup
obs412	398.358333	1	obsgroup
obs413	240.101695	1	obsgroup
obs414	184.891892	1	obsgroup
obs415	155.127273	1	obsgroup
obs416	135.970000	1	obsgroup
obs417	122.720000	1	obsgroup
obs418	118.107143	1	obsgroup
obs419	112.467290	1	obsgroup
obs420	106.630631	1	obsgroup
obs421	96.533051	1	obsgroup
obs422	89.783761	1	obsgroup
obs423	89.557143	1	obsgroup
obs424	299.373043	1	obsgroup
obs425	598.487179	1	obsgroup
obs426	449.000000	1	obsgroup
obs427	388.366071	1	obsgroup
obs428	338.928571	1	obsgroup
obs429	637.848739	1	obsgroup
obs430	492.008850	1	obsgroup
obs431	363.779817	1	obsgroup
obs432	403.184211	1	obsgroup
obs433	493.750000	1	obsgroup
obs434	954.214953	1	obsgroup
obs435	800.644860	1	obsgroup
obs436	551.298246	1	obsgroup
obs437	524.092593	1	obsgroup
obs438	676.059829	1	obsgroup
obs439	669.725664	1	obsgroup
obs440	914.439655	1	obsgroup
obs441	751.051724	1	obsgroup
obs442	563.955752	1	obsgroup
obs443	435.761468	1	obsgroup
obs444	356.698276	1	obsgroup
obs445	336.095652	1	obsgroup
obs446	323.381356	1	obsgroup
obs447	285.245614	1	obsgroup
obs448	267.491379	1	obsgroup
obs449	262.521008	1	obsgroup
obs450	372.794872	1	obsgroup
obs451	451.815789	1	obsgroup
obs452	532.042017	1	obsgroup
obs453	726.649573	1	obsgroup
obs454	1179.519231	1	obsgroup
obs455	943.509259	1	obsgroup
obs456	758.780702	1	obsgroup
obs457	819.390909	1	obsgroup
obs458	598.633028	1	obsgroup
obs459	480.310345	1	obsgroup
obs460	864.469027	1	obsgroup
obs461	729.333333	1	obsgroup
obs462	619.008621	1	obsgroup
obs463	477.172727	1	obsgroup
obs464	381.411215	1	obsgroup
obs465	318.110092	1	obsgroup
obs466	380.088235	1	obsgroup
obs467	344.563107	1	obsgroup
obs468	304.573913	1	obsgroup
obs469	329.632479	1	obsgroup
obs470	493.647059	1	obsgroup
obs471	1046.446154	1	obsgroup
obs472	1158.975000	1	obsgroup
obs473	725.380531	1	obsgroup
obs474	501.250000	1	obsgroup
obs475	379.754098	1	obsgroup
obs476	310.361345	1	obsgroup
obs477	253.327273	1	obsgroup
obs478	220.548673	1	obsgroup
obs479	230.466102	1	obsgroup
obs480	364.867257	1	obsgroup
obs481	481.228814	1	obsgroup
obs482	424.034188	1	obsgroup
obs483	394.735537	1	obsgroup
obs484	393.180328	1	obsgroup
obs485	375.477273	1	obsgroup
obs486	320.782178	1	obsgroup
obs487	282.125000	1	obsgroup
obs488	248.680412	1	obsgroup
obs489	226.672566	1	obsgroup
obs490	218.451327	1	obsgroup
obs491	218.427350	1	obsgroup
obs492	231.991228	1	obsgroup
obs493	251.068966	1	obsgroup
obs494	248.221239	1	obsgroup
obs495	224.716814	1	obsgroup
obs496	231.135417	1	obsgroup
obs497	268.625000	1	obsgroup
obs498	238.000000	1	obsgroup
obs499	217.010417	1	obsgroup
obs500	206.937500	1	obsgroup
obs501	195.500000	1	obsgroup
obs502	181.400000	1	obsgroup
obs503	173.638889	1	obsgroup
obs504	157.772727	1	obsgroup
obs505	148.536364	1	obsgroup
obs506	143.026786	1	obsgroup
obs507	133.338843	1	obsgroup
obs508	124.482143	1	obsgroup
obs509	118.756757	1	obsgroup
obs510	140.352941	1	obsgroup
obs511	144.817391	1	obsgroup
obs512	229.706897	1	obsgroup
obs513	257.312500	1	obsgroup
obs514	238.826087	1	obsgroup
obs515	244.336283	1	obsgroup
obs516	269.728070	1	obsgroup
obs517	304.900901	1	obsgroup
obs518	313.982759	1	obsgroup
obs519	270.238532	1	obsgroup
obs520	223.660870	1	obsgroup
obs521	193.420168	1	obsgroup
obs522	175.236842	1	obsgroup
obs523	154.921053	1	obsgroup
obs524	136.551724	1	obsgroup
obs525	120.812500	1	obsgroup
obs526	110.864407	1	obsgroup
obs527	102.421429	1	obsgroup
obs528	96.682787	1	obsgroup
obs529	107.033600	1	obsgroup
obs530	90.208871	1	obsgroup
obs531	81.457759	1	obsgroup
obs532	75.444737	1	obsgroup
obs533	70.221739	1	obsgroup
obs534	71.605000	1	obsgroup
obs535	75.468852	1	obsgroup
obs536	66.250847	1	obsgroup
obs537	61.056198	1	obsgroup
obs538	57.469027	1	obsgroup
obs539	56.394828	1	obsgroup
obs540	52.493162	1	obsgroup
obs541	49.313158	1	obsgroup
obs542	46.546018	1	obsgroup
obs543	44.306780	1	obsgroup
obs544	53.417544	1	obsgroup
obs545	51.666087	1	obsgroup
obs546	59.112605	1	obsgroup
obs547	51.068421	1	obsgroup
obs548	44.706422	1	obsgroup
obs549	41.030702	1	obsgroup
obs550	39.054464	1	obsgroup
obs551	36.366667	1	obsgroup
obs552	34.233333	1	obsgroup
obs553	33.386364	1	obsgroup
obs554	32.668376	1	obsgroup
obs555	31.062281	1	obsgroup
obs556	29.618919	1	obsgroup
obs557	29.112712	1	obsgroup
obs558	32.346087	1	obsgroup
obs559	33.806780	1	obsgroup
obs560	29.701786	1	obsgroup
obs561	27.894444	1	obsgroup
obs562	32.563810	1	obsgroup
obs563	46.660000	1	obsgroup
obs564	38.900893	1	obsgroup
obs565	78.740909	1	obsgroup
obs566	70.225424	1	obsgroup
obs567	53.002609	1	obsgroup
obs568	45.844144	1	obsgroup
obs569	39.834167	1	obsgroup
obs570	35.658261	1	obsgroup
obs571	32.851724	1	obsgroup
obs572	31.705833	1	obsgroup
obs573	29.541525	1	obsgroup
obs574	28.068908	1	obsgroup
obs575	26.574359	1	obsgroup
obs576	25.276316	1	obsgroup
obs577	24.033913	1	obsgroup
obs578	23.218349	1	obsgroup
obs579	22.303509	1	obsgroup
obs580	21.424561	1	obsgroup
obs581	20.874107	1	obsgroup
obs582	20.670175	1	obsgroup
obs583	20.264035	1	obsgroup
obs584	19.683636	1	obsgroup
obs585	19.586916	1	obsgroup
obs586	19.870940	1	obsgroup
obs587	18.618261	1	obsgroup
obs588	17.483929	1	obsgroup
obs589	16.963303	1	obsgroup
obs590	16.660417	1	obsgroup
obs591	17.156250	1	obsgroup
obs592	16.413462	1	obsgroup
obs593	15.948276	1	obsgroup
obs594	15.118421	1	obsgroup
obs595	14.357798	1	obsgroup
obs596	14.245614	1	obsgroup
obs597	14.111712	1	obsgroup
obs598	13.522124	1	obsgroup
obs599	13.040870	1	obsgroup
obs600	12.888889	1	obsgroup
obs601	12.689474	1	obsgroup
obs602	12.473913	1	obsgroup
obs603	12.733043	1	obsgroup
obs604	12.143636	1	obsgroup
obs605	11.716822	1	obsgroup
obs606	11.722609	1	obsgroup
obs607	12.510345	1	obsgroup
obs608	12.246429	1	obsgroup
obs609	11.917544	1	obsgroup
obs610	11.558716	1	obsgroup
obs611	11.067568	1	obsgroup
obs612	10.265351	1	obsgroup
obs613	9.890609	1	obsgroup
obs614	9.761034	1	obsgroup
obs615	9.642288	1	obsgroup
obs616	9.348696	1	obsgroup
obs617	9.210420	1	obsgroup
obs618	9.294312	1	obsgroup
obs619	8.838532	1	obsgroup
obs620	8.700609	1	obsgroup
obs621	9.080450	1	obsgroup
obs622	9.851284	1	obsgroup
obs623	10.532056	1	obsgroup
obs624	9.990000	1	obsgroup
obs625	9.908879	1	obsgroup
obs626	9.523750	1	obsgroup
obs627	9.284112	1	obsgroup
obs628	9.576847	1	obsgroup
obs629	9.162973	1	obsgroup
obs630	8.538053	1	obsgroup
obs631	8.240000	1	obsgroup
obs632	8.209823	1	obsgroup
obs633	9.073514	1	obsgroup
obs634	11.074312	1	obsgroup
obs635	10.890172	1	obsgroup
obs636	12.146429	1	obsgroup
obs637	10.668649	1	obsgroup
obs638	9.570278	1	obsgroup
obs639	9.392925	1	obsgroup
obs640	13.346557	1	obsgroup
obs641	16.919008	1	obsgroup
obs642	19.696396	1	obsgroup
obs643	31.364348	1	obsgroup
obs644	26.292562	1	obsgroup
obs645	19.264463	1	obsgroup
obs646	17.116102	1	obsgroup
obs647	15.196721	1	obsgroup
obs648	22.321239	1	obsgroup
obs649	40.531624	1	obsgroup
obs650	34.145614	1	obsgroup
obs651	24.775000	1	obsgroup
obs652	20.491228	1	obsgroup
obs653	18.033913	1	obsgroup
obs654	17.799130	1	obsgroup
obs655	16.265217	1	obsgroup
obs656	14.513393	1	obsgroup
obs657	13.620513	1	obsgroup
obs658	13.487387	1	obsgroup
obs659	13.034615	1	obsgroup
obs660	12.703604	1	obsgroup
obs661	12.700000	1	obsgroup
obs662	12.664912	1	obsgroup
obs663	12.300000	1	obsgroup
obs664	12.262963	1	obsgroup
obs665	11.900000	1	obsgroup
obs666	12.072500	1	obsgroup
obs667	22.454237	1	obsgroup
obs668	19.315385	1	obsgroup
obs669	36.125439	1	obsgroup
obs670	27.266087	1	obsgroup
obs671	21.793750	1	obsgroup
obs672	30.022500	1	obsgroup
obs673	25.211111	1	obsgroup
obs674	22.862832	1	obsgroup
obs675	32.243697	1	obsgroup
obs676	26.668376	1	obsgroup
obs677	24.435088	1	obsgroup
obs678	23.135714	1	obsgroup
obs679	21.050459	1	obsgroup
obs680	20.011818	1	obsgroup
obs681	27.122807	1	obsgroup
obs682	32.082609	1	obsgroup
obs683	36.919298	1	obsgroup
obs684	45.846721	1	obsgroup
obs685	42.501695	1	obsgroup
obs686	250.006034	1	obsgroup
obs687	232.265487	1	obsgroup
obs688	129.603448	1	obsgroup
obs689	93.190179	1	obsgroup
obs690	110.095690	1	obsgroup
obs691	629.034188	1	obsgroup
obs692	466.152542	1	obsgroup
obs693	377.256881	1	obsgroup
obs694	406.638655	1	obsgroup
obs695	263.789916	1	obsgroup
obs696	208.823009	1	obsgroup
obs697	217.637168	1	obsgroup
obs698	170.060345	1	obsgroup
obs699	153.765217	1	obsgroup
obs700	132.456897	1	obsgroup
obs701	114.410714	1	obsgroup
obs702	100.178814	1	obsgroup
obs703	88.518584	1	obsgroup
obs704	79.652252	1	obsgroup
obs705	72.023684	1	obsgroup
obs706	65.541071	1	obsgroup
obs707	60.545614	1	obsgroup
obs708	56.200901	1	obsgroup
obs709	52.595575	1	obsgroup
obs710	49.868750	1	obsgroup
obs711	47.060909	1	obsgroup
obs712	44.311009	1	obsgroup
obs713	41.434545	1	obsgroup
obs714	41.803448	1	obsgroup
obs715	38.728696	1	obsgroup
obs716	37.014035	1	obsgroup
obs717	36.184348	1	obsgroup
obs718	34.775652	1	obsgroup
obs719	33.555752	1	obsgroup
obs720	32.612727	1	obsgroup
obs721	30.926316	1	obsgroup
obs722	29.915888	1	obsgroup
obs723	28.960177	1	obsgroup
obs724	31.800000	1	obsgroup
obs725	34.592308	1	obsgroup
obs726	33.879130	1	obsgroup
obs727	675.180000	1	obsgroup
obs728	1201.379310	1	obsgroup
obs729	2125.689655	1	obsgroup
obs730	1141.567797	1	obsgroup
obs731	625.318966	1	obsgroup
obs732	409.330275	1	obsgroup
obs733	300.778761	1	obsgroup
obs734	231.000000	1	obsgroup
obs735	218.525424	1	obsgroup
obs736	183.927928	1	obsgroup
obs737	160.191304	1	obsgroup
obs738	140.648649	1	obsgroup
obs739	125.115044	1	obsgroup
obs740	115.650000	1	obsgroup
obs741	103.280870	1	obsgroup
obs742	93.926415	1	obsgroup
obs743	86.299115	1	obsgroup
obs744	83.466372	1	obsgroup
obs745	81.782906	1	obsgroup
obs746	74.532407	1	obsgroup
obs747	93.663393	1	obsgroup
obs748	847.345133	1	obsgroup
obs749	3258.921569	1	obsgroup
obs750	1936.354167	1	obsgroup
obs751	1662.474227	1	obsgroup
obs752	1067.312500	1	obsgroup
obs753	758.487342	1	obsgroup
obs754	1014.292517	1	obsgroup
obs755	1572.905405	1	obsgroup
obs756	1301.796875	1	obsgroup
obs757	0.000000	0	obsgroup
obs758	591.221519	1	obsgroup
obs759	464.881890	1	obsgroup
obs760	512.890625	1	obsgroup
obs761	396.814103	1	obsgroup
obs762	362.051095	1	obsgroup
obs763	293.450331	1	obsgroup
obs764	250.707792	1	obsgroup
obs765	213.108280	1	obsgroup
obs766	182.012658	1	obsgroup
obs767	160.254902	1	obsgroup
obs768	142.944828	1	obsgroup
obs769	143.751678	1	obsgroup
obs770	151.732484	1	obsgroup
obs771	151.615385	1	obsgroup
obs772	222.671053	1	obsgroup
obs773	184.820513	1	obsgroup
obs774	164.918239	1	obsgroup
obs775	149.397163	1	obsgroup
obs776	137.771242	1	obsgroup
obs777	130.986111	1	obsgroup
obs778	140.526667	1	obsgroup
obs779	202.820313	1	obsgroup
obs780	182.086093	1	obsgroup
obs781	221.644295	1	obsgroup
obs782	455.121429	1	obsgroup
obs783	590.055118	1	obsgroup
obs784	610.097345	1	obsgroup
obs785	440.946309	1	obsgroup
obs786	402.099338	1	obsgroup
obs787	317.500000	1	obsgroup
obs788	274.156463	1	obsgroup
obs789	257.240310	1	obsgroup
obs790	296.129032	1	obsgroup
obs791	259.914474	1	obsgroup
obs792	222.899329	1	obsgroup
obs793	233.467213	1	obsgroup
obs794	288.056338	1	obsgroup
obs795	346.093525	1	obsgroup
obs796	372.583942	1	obsgroup
obs797	289.869565	1	obsgroup
obs798	261.826923	1	obsgroup
obs799	277.510204	1	obsgroup
obs800	294.578947	1	obsgroup
obs801	416.883562	1	obsgroup
obs802	391.037037	1	obsgroup
obs803	733.565657	1	obsgroup
obs804	582.000000	1	obsgroup
obs805	1199.308511	1	obsgroup
obs806	1657.864078	1	obsgroup
obs807	1085.697531	1	obsgroup
obs808	755.655172	1	obsgroup
obs809	541.774834	1	obsgroup
obs810	764.496689	1	obsgroup
obs811	1388.450704	1	obsgroup
obs812	1411.834862	1	obsgroup
obs813	922.843575	1	obsgroup
obs814	734.325581	1	obsgroup
obs815	638.953642	1	obsgroup
obs816	514.368098	1	obsgroup
obs817	451.881579	1	obsgroup
obs818	465.170213	1	obsgroup
obs819	645.966443	1	obsgroup
obs820	2196.953642	1	obsgroup
obs821	1856.490066	1	obsgroup
obs822	1261.645570	1	obsgroup
obs823	869.924051	1	obsgroup
obs824	669.780488	1	obsgroup
obs825	544.344828	1	obsgroup
obs826	450.514620	1	obsgroup
obs827	376.317568	1	obsgroup
obs828	313.544872	1	obsgroup
obs829	273.462025	1	obsgroup
obs830	248.646259	1	obsgroup
obs831	244.527607	1	obsgroup
obs832	280.105590	1	obsgroup
obs833	287.819444	1	obsgroup
obs834	255.795775	1	obsgroup
obs835	224.834532	1	obsgroup
obs836	203.798658	1	obsgroup
obs837	363.572414	1	obsgroup
obs838	422.120482	1	obsgroup
obs839	469.500000	1	obsgroup
obs840	573.263158	1	obsgroup
obs841	729.551020	1	obsgroup
obs842	566.745455	1	obsgroup
obs843	443.986207	1	obsgroup
obs844	366.097015	1	obsgroup
obs845	301.989583	1	obsgroup
obs846	274.623077	1	obsgroup
obs847	541.072848	1	obsgroup
obs848	580.768707	1	obsgroup
obs849	446.931034	1	obsgroup
obs850	354.698630	1	obsgroup
obs851	404.613139	1	obsgroup
obs852	429.722973	1	obsgroup
obs853	383.717949	1	obsgroup
obs854	504.684615	1	obsgroup
obs855	574.929688	1	obsgroup
obs856	495.193548	1	obsgroup
obs857	395.984733	1	obsgroup
obs858	312.635714	1	obsgroup
obs859	252.549618	1	obsgroup
obs860	208.829630	1	obsgroup
obs861	178.370861	1	obsgroup
obs862	156.965517	1	obsgroup
obs863	138.181818	1	obsgroup
obs864	122.978417	1	obsgroup
obs865	111.594203	1	obsgroup
obs866	101.717213	1	obsgroup
obs867	92.935878	1	obsgroup
obs868	85.255224	1	obsgroup
obs869	79.404516	1	obsgroup
obs870	74.017722	1	obsgroup
obs871	69.515894	1	obsgroup
obs872	73.729139	1	obsgroup
obs873	89.788889	1	obsgroup
obs874	85.733742	1	obsgroup
obs875	137.594891	1	obsgroup
obs876	203.858108	1	obsgroup
obs877	322.541176	1	obsgroup
obs878	198.514620	1	obsgroup
obs879	155.923977	1	obsgroup
obs880	131.140127	1	obsgroup
obs881	112.474359	1	obsgroup
obs882	99.271654	1	obsgroup
obs883	90.132877	1	obsgroup
obs884	109.999422	1	obsgroup
obs885	90.974854	1	obsgroup
obs886	235.042759	1	obsgroup
obs887	531.649485	1	obsgroup
obs888	412.217822	1	obsgroup
obs889	349.430769	1	obsgroup
obs890	343.937500	1	obsgroup
obs891	439.624242	1	obsgroup
obs892	357.075145	1	obsgroup
obs893	275.969136	1	obsgroup
obs894	228.825397	1	obsgroup
obs895	217.980392	1	obsgroup
obs896	180.243902	1	obsgroup
obs897	153.133803	1	obsgroup
obs898	133.541096	1	obsgroup
obs899	120.718954	1	obsgroup
obs900	121.228758	1	obsgroup
obs901	110.367347	1	obsgroup
obs902	98.611268	1	obsgroup
obs903	89.088462	1	obsgroup
obs904	88.391250	1	obsgroup
obs905	119.303571	1	obsgroup
obs906	120.719512	1	obsgroup
obs907	111.660377	1	obsgroup
obs908	134.456790	1	obsgroup
obs909	127.844828	1	obsgroup
obs910	111.531646	1	obsgroup
obs911	99.855034	1	obsgroup
obs912	95.433333	1	obsgroup
obs913	106.347107	1	obsgroup
obs914	95.482292	1	obsgroup
obs915	93.603125	1	obsgroup
obs916	86.424074	1	obsgroup
obs917	78.622772	1	obsgroup
obs918	71.791667	1	obsgroup
obs919	66.651042	1	obsgroup
obs920	62.100000	1	obsgroup
obs921	56.538542	1	obsgroup
obs922	52.121875	1	obsgroup
obs923	49.140625	1	obsgroup
obs924	46.560417	1	obsgroup
obs925	44.272917	1	obsgroup
obs926	42.180208	1	obsgroup
obs927	41.247917	1	obsgroup
obs928	41.020833	1	obsgroup
obs929	39.681416	1	obsgroup
obs930	39.934058	1	obsgroup
obs931	38.826531	1	obsgroup
obs932	35.629577	1	obsgroup
obs933	34.199398	1	obsgroup
obs934	32.889091	1	obsgroup
obs935	32.309639	1	obsgroup
obs936	30.668293	1	obsgroup
obs937	29.347742	1	obsgroup
obs938	27.554054	1	obsgroup
obs939	26.506875	1	obsgroup
obs940	26.117197	1	obsgroup
obs941	25.141830	1	obsgroup
obs942	24.985616	1	obsgroup
obs943	23.740994	1	obsgroup
obs944	22.510897	1	obsgroup
obs945	20.992593	1	obsgroup
obs946	20.162346	1	obsgroup
obs947	19.005634	1	obsgroup
obs948	17.792254	1	obsgroup
obs949	17.428030	1	obsgroup
obs950	16.599231	1	obsgroup
obs951	16.507407	1	obsgroup
obs952	16.413669	1	obsgroup
obs953	16.319149	1	obsgroup
obs954	15.678322	1	obsgroup
obs955	14.987234	1	obsgroup
obs956	13.773571	1	obsgroup
obs957	13.221429	1	obsgroup
obs958	12.808824	1	obsgroup
obs959	12.589362	1	obsgroup