pcf
* control data
restart  estimation
    8  3287     8     0     1
    1     1 single point   1   0   0
  5.0   2.0   0.3  0.03    10  999  lamforgive  derforgive
  3.0   3.0 0.001  0
  0.1
   30  0.01     3     3  0.01     3
    1     1     1     1
* parameter groups
fc           relative 0.01  0.0  switch  2.0 parabolic
beta         relative 0.01  0.0  switch  2.0 parabolic
perc         relative 0.01  0.0  switch  2.0 parabolic
uzl          relative 0.01  0.0  switch  2.0 parabolic
k0           relative 0.01  0.0  switch  2.0 parabolic
k1           relative 0.01  0.0  switch  2.0 parabolic
k2           relative 0.01  0.0  switch  2.0 parabolic
et_mult      relative 0.01  0.0  switch  2.0 parabolic
* parameter data
fc           none relative   279.8479     50.000000  600.000000      fc              1.0000        0.0000      1
beta         none relative   1.238121     1.000000    6.000000       beta            1.0000        0.0000      1
perc         none relative   0.187136     0.000100    0.500000       perc            1.0000        0.0000      1
uzl          none relative   1.112796     0.100000   75.000000       uzl             1.0000        0.0000      1
k0           none relative   0.5875       0.050000    0.700000       k0              1.0000        0.0000      1
k1           none relative   0.286322     0.010000    0.400000       k1              1.0000        0.0000      1
k2           none relative   0.0322	  0.000100    0.150000       k2              1.0000        0.0000      1
et_mult      none relative   1.00000      0.100000    10.00000       et_mult         1.0000        0.0000      1
* observation groups
obsgroup
* observation data
obs1	4691.041667	1	obsgroup
obs2	2153.854167	1	obsgroup
obs3	1240.729167	1	obsgroup
obs4	864.635417	1	obsgroup
obs5	704.979167	1	obsgroup
obs6	1923.427083	1	obsgroup
obs7	1802.812500	1	obsgroup
obs8	1212.187500	1	obsgroup
obs9	977.479167	1	obsgroup
obs10	769.208333	1	obsgroup
obs11	630.822917	1	obsgroup
obs12	567.895833	1	obsgroup
obs13	595.135417	1	obsgroup
obs14	661.043478	1	obsgroup
obs15	547.520833	1	obsgroup
obs16	655.052083	1	obsgroup
obs17	745.770833	1	obsgroup
obs18	687.500000	1	obsgroup
obs19	573.791667	1	obsgroup
obs20	472.697917	1	obsgroup
obs21	402.802083	1	obsgroup
obs22	354.656250	1	obsgroup
obs23	307.958333	1	obsgroup
obs24	351.364583	1	obsgroup
obs25	802.718750	1	obsgroup
obs26	780.717391	1	obsgroup
obs27	777.010417	1	obsgroup
obs28	629.135417	1	obsgroup
obs29	515.510870	1	obsgroup
obs30	442.635417	1	obsgroup
obs31	417.406250	1	obsgroup
obs32	423.656250	1	obsgroup
obs33	525.760417	1	obsgroup
obs34	480.791667	1	obsgroup
obs35	430.635417	1	obsgroup
obs36	408.041667	1	obsgroup
obs37	365.708333	1	obsgroup
obs38	346.729167	1	obsgroup
obs39	333.218750	1	obsgroup
obs40	319.427083	1	obsgroup
obs41	298.281250	1	obsgroup
obs42	297.218750	1	obsgroup
obs43	406.916667	1	obsgroup
obs44	516.593750	1	obsgroup
obs45	466.114583	1	obsgroup
obs46	549.750000	1	obsgroup
obs47	517.520833	1	obsgroup
obs48	458.406250	1	obsgroup
obs49	403.687500	1	obsgroup
obs50	348.729167	1	obsgroup
obs51	304.697917	1	obsgroup
obs52	268.375000	1	obsgroup
obs53	237.468750	1	obsgroup
obs54	215.937500	1	obsgroup
obs55	301.750000	1	obsgroup
obs56	511.187500	1	obsgroup
obs57	484.625000	1	obsgroup
obs58	483.958333	1	obsgroup
obs59	404.114583	1	obsgroup
obs60	339.000000	1	obsgroup
obs61	302.395833	1	obsgroup
obs62	299.468750	1	obsgroup
obs63	329.177083	1	obsgroup
obs64	335.197917	1	obsgroup
obs65	310.125000	1	obsgroup
obs66	280.437500	1	obsgroup
obs67	285.218750	1	obsgroup
obs68	258.750000	1	obsgroup
obs69	253.062500	1	obsgroup
obs70	259.812500	1	obsgroup
obs71	530.458333	1	obsgroup
obs72	808.427083	1	obsgroup
obs73	675.315217	1	obsgroup
obs74	622.156250	1	obsgroup
obs75	649.645833	1	obsgroup
obs76	559.958333	1	obsgroup
obs77	458.822917	1	obsgroup
obs78	384.437500	1	obsgroup
obs79	333.510417	1	obsgroup
obs80	310.979167	1	obsgroup
obs81	403.489583	1	obsgroup
obs82	405.770833	1	obsgroup
obs83	363.447917	1	obsgroup
obs84	509.531250	1	obsgroup
obs85	1092.145833	1	obsgroup
obs86	1250.312500	1	obsgroup
obs87	1048.343750	1	obsgroup
obs88	3014.062500	1	obsgroup
obs89	3923.437500	1	obsgroup
obs90	2350.208333	1	obsgroup
obs91	1550.104167	1	obsgroup
obs92	1508.645833	1	obsgroup
obs93	1761.770833	1	obsgroup
obs94	1370.520833	1	obsgroup
obs95	1096.666667	1	obsgroup
obs96	970.864583	1	obsgroup
obs97	1028.385417	1	obsgroup
obs98	1278.333333	1	obsgroup
obs99	1064.593750	1	obsgroup
obs100	887.114583	1	obsgroup
obs101	908.739583	1	obsgroup
obs102	951.468750	1	obsgroup
obs103	953.208333	1	obsgroup
obs104	944.718750	1	obsgroup
obs105	1021.177083	1	obsgroup
obs106	945.364583	1	obsgroup
obs107	891.562500	1	obsgroup
obs108	820.833333	1	obsgroup
obs109	765.531250	1	obsgroup
obs110	734.385417	1	obsgroup
obs111	1160.625000	1	obsgroup
obs112	1017.156250	1	obsgroup
obs113	824.145833	1	obsgroup
obs114	697.125000	1	obsgroup
obs115	594.020833	1	obsgroup
obs116	532.583333	1	obsgroup
obs117	1714.375000	1	obsgroup
obs118	2191.041667	1	obsgroup
obs119	2045.208333	1	obsgroup
obs120	2147.500000	1	obsgroup
obs121	1741.875000	1	obsgroup
obs122	1449.687500	1	obsgroup
obs123	1325.833333	1	obsgroup
obs124	1447.916667	1	obsgroup
obs125	1118.645833	1	obsgroup
obs126	940.843750	1	obsgroup
obs127	810.000000	1	obsgroup
obs128	707.979167	1	obsgroup
obs129	626.947917	1	obsgroup
obs130	610.375000	1	obsgroup
obs131	935.197917	1	obsgroup
obs132	884.656250	1	obsgroup
obs133	748.322917	1	obsgroup
obs134	655.864583	1	obsgroup
obs135	598.156250	1	obsgroup
obs136	552.385417	1	obsgroup
obs137	530.354167	1	obsgroup
obs138	528.552083	1	obsgroup
obs139	483.437500	1	obsgroup
obs140	677.979167	1	obsgroup
obs141	717.302083	1	obsgroup
obs142	840.906250	1	obsgroup
obs143	1028.239583	1	obsgroup
obs144	989.083333	1	obsgroup
obs145	846.218750	1	obsgroup
obs146	839.531250	1	obsgroup
obs147	1143.208333	1	obsgroup
obs148	1054.833333	1	obsgroup
obs149	857.437500	1	obsgroup
obs150	700.572917	1	obsgroup
obs151	621.239583	1	obsgroup
obs152	624.114583	1	obsgroup
obs153	1895.885417	1	obsgroup
obs154	3684.687500	1	obsgroup
obs155	4869.583333	1	obsgroup
obs156	2765.937500	1	obsgroup
obs157	1663.645833	1	obsgroup
obs158	1181.979167	1	obsgroup
obs159	898.062500	1	obsgroup
obs160	795.104167	1	obsgroup
obs161	1293.750000	1	obsgroup
obs162	1946.666667	1	obsgroup
obs163	1410.625000	1	obsgroup
obs164	1022.604167	1	obsgroup
obs165	790.083333	1	obsgroup
obs166	648.697917	1	obsgroup
obs167	566.312500	1	obsgroup
obs168	490.614583	1	obsgroup
obs169	433.541667	1	obsgroup
obs170	389.666667	1	obsgroup
obs171	364.739583	1	obsgroup
obs172	337.239583	1	obsgroup
obs173	307.010417	1	obsgroup
obs174	282.937500	1	obsgroup
obs175	260.625000	1	obsgroup
obs176	241.822917	1	obsgroup
obs177	227.895833	1	obsgroup
obs178	210.750000	1	obsgroup
obs179	196.791667	1	obsgroup
obs180	189.000000	1	obsgroup
obs181	184.822917	1	obsgroup
obs182	173.822917	1	obsgroup
obs183	0.000000	0	obsgroup
obs184	174.358696	1	obsgroup
obs185	160.572917	1	obsgroup
obs186	151.812500	1	obsgroup
obs187	144.656250	1	obsgroup
obs188	137.218750	1	obsgroup
obs189	127.979167	1	obsgroup
obs190	123.135417	1	obsgroup
obs191	115.791667	1	obsgroup
obs192	109.041667	1	obsgroup
obs193	107.000000	1	obsgroup
obs194	105.864583	1	obsgroup
obs195	99.958696	1	obsgroup
obs196	95.887500	1	obsgroup
obs197	92.686458	1	obsgroup
obs198	89.447917	1	obsgroup
obs199	85.716667	1	obsgroup
obs200	84.182292	1	obsgroup
obs201	81.733333	1	obsgroup
obs202	79.366667	1	obsgroup
obs203	78.100000	1	obsgroup
obs204	74.684375	1	obsgroup
obs205	72.968750	1	obsgroup
obs206	68.891667	1	obsgroup
obs207	65.166667	1	obsgroup
obs208	62.955208	1	obsgroup
obs209	60.266667	1	obsgroup
obs210	58.833333	1	obsgroup
obs211	55.990625	1	obsgroup
obs212	54.214583	1	obsgroup
obs213	53.466304	1	obsgroup
obs214	52.568750	1	obsgroup
obs215	51.187500	1	obsgroup
obs216	47.438298	1	obsgroup
obs217	0.000000	0	obsgroup
obs218	0.000000	0	obsgroup
obs219	43.725000	1	obsgroup
obs220	0.000000	0	obsgroup
obs221	42.100000	1	obsgroup
obs222	42.100000	1	obsgroup
obs223	42.000000	1	obsgroup
obs224	40.200000	1	obsgroup
obs225	39.594792	1	obsgroup
obs226	37.400000	1	obsgroup
obs227	35.646875	1	obsgroup
obs228	35.200000	1	obsgroup
obs229	33.905208	1	obsgroup
obs230	34.455208	1	obsgroup
obs231	36.597917	1	obsgroup
obs232	34.317708	1	obsgroup
obs233	33.217708	1	obsgroup
obs234	33.000000	1	obsgroup
obs235	32.010417	1	obsgroup
obs236	31.927083	1	obsgroup
obs237	30.062500	1	obsgroup
obs238	28.407292	1	obsgroup
obs239	27.800000	1	obsgroup
obs240	28.201042	1	obsgroup
obs241	29.243750	1	obsgroup
obs242	35.767708	1	obsgroup
obs243	59.496875	1	obsgroup
obs244	47.610417	1	obsgroup
obs245	43.755208	1	obsgroup
obs246	39.170833	1	obsgroup
obs247	34.489583	1	obsgroup
obs248	32.250000	1	obsgroup
obs249	30.354167	1	obsgroup
obs250	30.428125	1	obsgroup
obs251	48.451042	1	obsgroup
obs252	80.839583	1	obsgroup
obs253	75.256250	1	obsgroup
obs254	50.380208	1	obsgroup
obs255	41.692708	1	obsgroup
obs256	37.783333	1	obsgroup
obs257	36.185417	1	obsgroup
obs258	34.306250	1	obsgroup
obs259	33.000000	1	obsgroup
obs260	32.711458	1	obsgroup
obs261	49.231250	1	obsgroup
obs262	285.597917	1	obsgroup
obs263	299.416667	1	obsgroup
obs264	151.947917	1	obsgroup
obs265	96.304167	1	obsgroup
obs266	74.628125	1	obsgroup
obs267	64.607292	1	obsgroup
obs268	55.888542	1	obsgroup
obs269	49.443750	1	obsgroup
obs270	45.656250	1	obsgroup
obs271	43.234375	1	obsgroup
obs272	42.050000	1	obsgroup
obs273	40.900000	1	obsgroup
obs274	39.528125	1	obsgroup
obs275	38.425000	1	obsgroup
obs276	37.400000	1	obsgroup
obs277	37.662500	1	obsgroup
obs278	38.600000	1	obsgroup
obs279	37.400000	1	obsgroup
obs280	36.552083	1	obsgroup
obs281	35.200000	1	obsgroup
obs282	35.200000	1	obsgroup
obs283	40.385417	1	obsgroup
obs284	51.184375	1	obsgroup
obs285	47.381250	1	obsgroup
obs286	41.175000	1	obsgroup
obs287	37.261458	1	obsgroup
obs288	34.627083	1	obsgroup
obs289	33.286458	1	obsgroup
obs290	33.000000	1	obsgroup
obs291	33.000000	1	obsgroup
obs292	33.000000	1	obsgroup
obs293	32.843750	1	obsgroup
obs294	32.000000	1	obsgroup
obs295	33.088542	1	obsgroup
obs296	43.761458	1	obsgroup
obs297	569.894792	1	obsgroup
obs298	764.697917	1	obsgroup
obs299	1037.958333	1	obsgroup
obs300	573.333333	1	obsgroup
obs301	362.385417	1	obsgroup
obs302	565.010417	1	obsgroup
obs303	371.854167	1	obsgroup
obs304	364.343750	1	obsgroup
obs305	337.031250	1	obsgroup
obs306	243.604167	1	obsgroup
obs307	187.895833	1	obsgroup
obs308	149.583333	1	obsgroup
obs309	125.145833	1	obsgroup
obs310	110.583333	1	obsgroup
obs311	977.250000	1	obsgroup
obs312	942.697917	1	obsgroup
obs313	680.812500	1	obsgroup
obs314	1286.666667	1	obsgroup
obs315	803.635417	1	obsgroup
obs316	515.041667	1	obsgroup
obs317	389.770833	1	obsgroup
obs318	419.500000	1	obsgroup
obs319	513.364583	1	obsgroup
obs320	679.229167	1	obsgroup
obs321	564.166667	1	obsgroup
obs322	1271.427083	1	obsgroup
obs323	1040.270833	1	obsgroup
obs324	686.000000	1	obsgroup
obs325	536.385417	1	obsgroup
obs326	501.614583	1	obsgroup
obs327	650.927083	1	obsgroup
obs328	449.083333	1	obsgroup
obs329	348.479167	1	obsgroup
obs330	411.822917	1	obsgroup
obs331	1036.614583	1	obsgroup
obs332	878.625000	1	obsgroup
obs333	668.812500	1	obsgroup
obs334	718.343750	1	obsgroup
obs335	2408.437500	1	obsgroup
obs336	2324.270833	1	obsgroup
obs337	1679.895833	1	obsgroup
obs338	1063.385417	1	obsgroup
obs339	960.187500	1	obsgroup
obs340	1027.458333	1	obsgroup
obs341	998.312500	1	obsgroup
obs342	1131.385417	1	obsgroup
obs343	1205.625000	1	obsgroup
obs344	2157.291667	1	obsgroup
obs345	2531.145833	1	obsgroup
obs346	2912.083333	1	obsgroup
obs347	4021.458333	1	obsgroup
obs348	4608.750000	1	obsgroup
obs349	2776.145833	1	obsgroup
obs350	1672.395833	1	obsgroup
obs351	1175.937500	1	obsgroup
obs352	1185.520833	1	obsgroup
obs353	1393.541667	1	obsgroup
obs354	1390.104167	1	obsgroup
obs355	1179.895833	1	obsgroup
obs356	956.281250	1	obsgroup
obs357	802.875000	1	obsgroup
obs358	670.593750	1	obsgroup
obs359	649.458333	1	obsgroup
obs360	824.312500	1	obsgroup
obs361	842.541667	1	obsgroup
obs362	2126.010417	1	obsgroup
obs363	4458.125000	1	obsgroup
obs364	1985.312500	1	obsgroup
obs365	1284.270833	1	obsgroup
obs366	987.875000	1	obsgroup
obs367	867.395833	1	obsgroup
obs368	747.604167	1	obsgroup
obs369	672.291667	1	obsgroup
obs370	630.468750	1	obsgroup
obs371	617.000000	1	obsgroup
obs372	623.760417	1	obsgroup
obs373	819.218750	1	obsgroup
obs374	792.218750	1	obsgroup
obs375	668.729167	1	obsgroup
obs376	587.114583	1	obsgroup
obs377	541.322917	1	obsgroup
obs378	1425.385417	1	obsgroup
obs379	2562.291667	1	obsgroup
obs380	1907.916667	1	obsgroup
obs381	8661.041667	1	obsgroup
obs382	5999.791667	1	obsgroup
obs383	2627.708333	1	obsgroup
obs384	2278.333333	1	obsgroup
obs385	1686.250000	1	obsgroup
obs386	1269.791667	1	obsgroup
obs387	1047.322917	1	obsgroup
obs388	862.750000	1	obsgroup
obs389	733.645833	1	obsgroup
obs390	647.382979	1	obsgroup
obs391	574.625000	1	obsgroup
obs392	524.250000	1	obsgroup
obs393	489.583333	1	obsgroup
obs394	451.520833	1	obsgroup
obs395	409.906250	1	obsgroup
obs396	370.010417	1	obsgroup
obs397	338.125000	1	obsgroup
obs398	313.697917	1	obsgroup
obs399	290.156250	1	obsgroup
obs400	272.750000	1	obsgroup
obs401	267.187500	1	obsgroup
obs402	271.843750	1	obsgroup
obs403	282.281250	1	obsgroup
obs404	307.135417	1	obsgroup
obs405	279.093750	1	obsgroup
obs406	266.093750	1	obsgroup
obs407	263.000000	1	obsgroup
obs408	261.687500	1	obsgroup
obs409	256.750000	1	obsgroup
obs410	261.843750	1	obsgroup
obs411	1223.145833	1	obsgroup
obs412	1466.458333	1	obsgroup
obs413	943.375000	1	obsgroup
obs414	765.479167	1	obsgroup
obs415	653.885417	1	obsgroup
obs416	565.489583	1	obsgroup
obs417	504.864583	1	obsgroup
obs418	485.333333	1	obsgroup
obs419	471.791667	1	obsgroup
obs420	462.000000	1	obsgroup
obs421	417.208333	1	obsgroup
obs422	381.156250	1	obsgroup
obs423	361.208333	1	obsgroup
obs424	367.666667	1	obsgroup
obs425	729.041667	1	obsgroup
obs426	1137.781250	1	obsgroup
obs427	1219.895833	1	obsgroup
obs428	988.395833	1	obsgroup
obs429	2310.520833	1	obsgroup
obs430	1616.666667	1	obsgroup
obs431	1180.833333	1	obsgroup
obs432	1514.354167	1	obsgroup
obs433	2473.750000	1	obsgroup
obs434	4065.208333	1	obsgroup
obs435	3011.041667	1	obsgroup
obs436	1767.500000	1	obsgroup
obs437	1435.869565	1	obsgroup
obs438	1620.104167	1	obsgroup
obs439	1907.604167	1	obsgroup
obs440	2530.937500	1	obsgroup
obs441	1941.770833	1	obsgroup
obs442	1451.041667	1	obsgroup
obs443	1175.312500	1	obsgroup
obs444	959.729167	1	obsgroup
obs445	927.906250	1	obsgroup
obs446	954.260417	1	obsgroup
obs447	854.666667	1	obsgroup
obs448	783.302083	1	obsgroup
obs449	735.437500	1	obsgroup
obs450	955.458333	1	obsgroup
obs451	1150.416667	1	obsgroup
obs452	1277.708333	1	obsgroup
obs453	1435.937500	1	obsgroup
obs454	2645.312500	1	obsgroup
obs455	2327.812500	1	obsgroup
obs456	1962.187500	1	obsgroup
obs457	1979.062500	1	obsgroup
obs458	1531.458333	1	obsgroup
obs459	1246.145833	1	obsgroup
obs460	2882.395833	1	obsgroup
obs461	2198.958333	1	obsgroup
obs462	1713.437500	1	obsgroup
obs463	1346.458333	1	obsgroup
obs464	1106.875000	1	obsgroup
obs465	947.218750	1	obsgroup
obs466	1012.500000	1	obsgroup
obs467	968.270833	1	obsgroup
obs468	852.020833	1	obsgroup
obs469	781.645833	1	obsgroup
obs470	1036.760417	1	obsgroup
obs471	1875.416667	1	obsgroup
obs472	3311.666667	1	obsgroup
obs473	2003.958333	1	obsgroup
obs474	1376.770833	1	obsgroup
obs475	1065.437500	1	obsgroup
obs476	890.635417	1	obsgroup
obs477	753.593750	1	obsgroup
obs478	684.072917	1	obsgroup
obs479	858.416667	1	obsgroup
obs480	1338.229167	1	obsgroup
obs481	1689.895833	1	obsgroup
obs482	1366.979167	1	obsgroup
obs483	1200.416667	1	obsgroup
obs484	1362.708333	1	obsgroup
obs485	1558.020833	1	obsgroup
obs486	1304.687500	1	obsgroup
obs487	1206.875000	1	obsgroup
obs488	1040.614583	1	obsgroup
obs489	881.239583	1	obsgroup
obs490	884.010417	1	obsgroup
obs491	867.062500	1	obsgroup
obs492	860.135417	1	obsgroup
obs493	1008.333333	1	obsgroup
obs494	1024.385417	1	obsgroup
obs495	925.052083	1	obsgroup
obs496	877.916667	1	obsgroup
obs497	1170.833333	1	obsgroup
obs498	990.354167	1	obsgroup
obs499	880.635417	1	obsgroup
obs500	782.364583	1	obsgroup
obs501	772.625000	1	obsgroup
obs502	728.385417	1	obsgroup
obs503	737.114583	1	obsgroup
obs504	681.843750	1	obsgroup
obs505	647.562500	1	obsgroup
obs506	631.864583	1	obsgroup
obs507	583.625000	1	obsgroup
obs508	531.437500	1	obsgroup
obs509	497.343750	1	obsgroup
obs510	584.145833	1	obsgroup
obs511	809.062500	1	obsgroup
obs512	1204.895833	1	obsgroup
obs513	1667.395833	1	obsgroup
obs514	1431.041667	1	obsgroup
obs515	1322.604167	1	obsgroup
obs516	1579.270833	1	obsgroup
obs517	1767.291667	1	obsgroup
obs518	1745.625000	1	obsgroup
obs519	1375.312500	1	obsgroup
obs520	1067.531250	1	obsgroup
obs521	918.781250	1	obsgroup
obs522	810.458333	1	obsgroup
obs523	695.770833	1	obsgroup
obs524	608.552083	1	obsgroup
obs525	541.885417	1	obsgroup
obs526	516.833333	1	obsgroup
obs527	487.625000	1	obsgroup
obs528	442.385417	1	obsgroup
obs529	502.843750	1	obsgroup
obs530	457.114583	1	obsgroup
obs531	401.447917	1	obsgroup
obs532	353.416667	1	obsgroup
obs533	321.125000	1	obsgroup
obs534	304.197917	1	obsgroup
obs535	344.552083	1	obsgroup
obs536	318.604167	1	obsgroup
obs537	307.677083	1	obsgroup
obs538	298.687500	1	obsgroup
obs539	283.000000	1	obsgroup
obs540	235.250000	1	obsgroup
obs541	208.562500	1	obsgroup
obs542	193.083333	1	obsgroup
obs543	186.500000	1	obsgroup
obs544	217.739583	1	obsgroup
obs545	235.833333	1	obsgroup
obs546	222.239583	1	obsgroup
obs547	223.791667	1	obsgroup
obs548	192.833333	1	obsgroup
obs549	178.354167	1	obsgroup
obs550	163.854167	1	obsgroup
obs551	150.447917	1	obsgroup
obs552	141.583333	1	obsgroup
obs553	132.979167	1	obsgroup
obs554	126.010417	1	obsgroup
obs555	116.541667	1	obsgroup
obs556	110.500000	1	obsgroup
obs557	106.197917	1	obsgroup
obs558	104.614583	1	obsgroup
obs559	118.510417	1	obsgroup
obs560	108.489583	1	obsgroup
obs561	101.378125	1	obsgroup
obs562	100.713542	1	obsgroup
obs563	137.052083	1	obsgroup
obs564	133.677083	1	obsgroup
obs565	750.416667	1	obsgroup
obs566	540.854167	1	obsgroup
obs567	322.416667	1	obsgroup
obs568	235.260417	1	obsgroup
obs569	186.677083	1	obsgroup
obs570	156.854167	1	obsgroup
obs571	136.875000	1	obsgroup
obs572	125.479167	1	obsgroup
obs573	114.125000	1	obsgroup
obs574	105.598958	1	obsgroup
obs575	97.987500	1	obsgroup
obs576	94.071875	1	obsgroup
obs577	88.810417	1	obsgroup
obs578	85.566667	1	obsgroup
obs579	82.455208	1	obsgroup
obs580	77.683333	1	obsgroup
obs581	75.966667	1	obsgroup
obs582	74.328125	1	obsgroup
obs583	71.203125	1	obsgroup
obs584	68.317708	1	obsgroup
obs585	66.706250	1	obsgroup
obs586	66.433333	1	obsgroup
obs587	62.207292	1	obsgroup
obs588	58.836458	1	obsgroup
obs589	57.100000	1	obsgroup
obs590	54.810417	1	obsgroup
obs591	54.200000	1	obsgroup
obs592	52.981250	1	obsgroup
obs593	51.402083	1	obsgroup
obs594	48.950000	1	obsgroup
obs595	47.091667	1	obsgroup
obs596	44.762500	1	obsgroup
obs597	43.437500	1	obsgroup
obs598	43.400000	1	obsgroup
obs599	42.127083	1	obsgroup
obs600	39.776042	1	obsgroup
obs601	37.600000	1	obsgroup
obs602	38.000000	1	obsgroup
obs603	37.725000	1	obsgroup
obs604	37.400000	1	obsgroup
obs605	36.128125	1	obsgroup
obs606	35.200000	1	obsgroup
obs607	34.638298	1	obsgroup
obs608	34.100000	1	obsgroup
obs609	34.100000	1	obsgroup
obs610	33.355208	1	obsgroup
obs611	32.312500	1	obsgroup
obs612	31.947917	1	obsgroup
obs613	30.093750	1	obsgroup
obs614	29.152083	1	obsgroup
obs615	27.811458	1	obsgroup
obs616	28.327083	1	obsgroup
obs617	28.900000	1	obsgroup
obs618	27.845833	1	obsgroup
obs619	26.997917	1	obsgroup
obs620	26.700000	1	obsgroup
obs621	26.700000	1	obsgroup
obs622	26.700000	1	obsgroup
obs623	28.052083	1	obsgroup
obs624	28.900000	1	obsgroup
obs625	28.900000	1	obsgroup
obs626	27.662500	1	obsgroup
obs627	26.700000	1	obsgroup
obs628	26.700000	1	obsgroup
obs629	26.575000	1	obsgroup
obs630	24.622917	1	obsgroup
obs631	23.784375	1	obsgroup
obs632	23.700000	1	obsgroup
obs633	24.012500	1	obsgroup
obs634	29.335417	1	obsgroup
obs635	28.109375	1	obsgroup
obs636	27.800000	1	obsgroup
obs637	27.800000	1	obsgroup
obs638	26.229167	1	obsgroup
obs639	24.600000	1	obsgroup
obs640	26.683333	1	obsgroup
obs641	33.812500	1	obsgroup
obs642	60.381250	1	obsgroup
obs643	92.369792	1	obsgroup
obs644	70.233333	1	obsgroup
obs645	48.714583	1	obsgroup
obs646	40.831250	1	obsgroup
obs647	36.620833	1	obsgroup
obs648	46.191667	1	obsgroup
obs649	138.644792	1	obsgroup
obs650	133.488542	1	obsgroup
obs651	72.523958	1	obsgroup
obs652	54.464583	1	obsgroup
obs653	45.521875	1	obsgroup
obs654	42.614583	1	obsgroup
obs655	41.641667	1	obsgroup
obs656	37.928125	1	obsgroup
obs657	36.300000	1	obsgroup
obs658	35.245833	1	obsgroup
obs659	34.363542	1	obsgroup
obs660	33.240625	1	obsgroup
obs661	33.000000	1	obsgroup
obs662	32.729167	1	obsgroup
obs663	31.333333	1	obsgroup
obs664	0.000000	0	obsgroup
obs665	30.000000	1	obsgroup
obs666	30.000000	1	obsgroup
obs667	31.894792	1	obsgroup
obs668	37.113542	1	obsgroup
obs669	47.202083	1	obsgroup
obs670	55.745833	1	obsgroup
obs671	43.534375	1	obsgroup
obs672	46.620833	1	obsgroup
obs673	53.061458	1	obsgroup
obs674	45.557292	1	obsgroup
obs675	45.458000	1	obsgroup
obs676	45.615625	1	obsgroup
obs677	43.517708	1	obsgroup
obs678	41.412500	1	obsgroup
obs679	38.484375	1	obsgroup
obs680	37.239583	1	obsgroup
obs681	37.002083	1	obsgroup
obs682	43.681250	1	obsgroup
obs683	50.753125	1	obsgroup
obs684	71.773958	1	obsgroup
obs685	84.220833	1	obsgroup
obs686	375.142708	1	obsgroup
obs687	540.833333	1	obsgroup
obs688	248.333333	1	obsgroup
obs689	161.708333	1	obsgroup
obs690	152.437500	1	obsgroup
obs691	1324.750000	1	obsgroup
obs692	986.593750	1	obsgroup
obs693	869.427083	1	obsgroup
obs694	881.802083	1	obsgroup
obs695	581.864583	1	obsgroup
obs696	425.239583	1	obsgroup
obs697	376.781250	1	obsgroup
obs698	306.677083	1	obsgroup
obs699	263.968750	1	obsgroup
obs700	235.916667	1	obsgroup
obs701	195.395833	1	obsgroup
obs702	161.916667	1	obsgroup
obs703	137.552083	1	obsgroup
obs704	121.958333	1	obsgroup
obs705	109.468750	1	obsgroup
obs706	99.790625	1	obsgroup
obs707	92.738542	1	obsgroup
obs708	86.041667	1	obsgroup
obs709	82.256250	1	obsgroup
obs710	79.600000	1	obsgroup
obs711	76.255208	1	obsgroup
obs712	72.187500	1	obsgroup
obs713	69.385417	1	obsgroup
obs714	68.300000	1	obsgroup
obs715	67.343750	1	obsgroup
obs716	65.042708	1	obsgroup
obs717	63.300000	1	obsgroup
obs718	63.170833	1	obsgroup
obs719	59.116667	1	obsgroup
obs720	58.100000	1	obsgroup
obs721	55.602083	1	obsgroup
obs722	53.121875	1	obsgroup
obs723	52.700000	1	obsgroup
obs724	52.996875	1	obsgroup
obs725	56.729167	1	obsgroup
obs726	55.057292	1	obsgroup
obs727	383.989583	1	obsgroup
obs728	1341.875000	1	obsgroup
obs729	4842.604167	1	obsgroup
obs730	2169.791667	1	obsgroup
obs731	1046.968750	1	obsgroup
obs732	713.583333	1	obsgroup
obs733	515.322917	1	obsgroup
obs734	390.718750	1	obsgroup
obs735	341.375000	1	obsgroup
obs736	296.062500	1	obsgroup
obs737	257.000000	1	obsgroup
obs738	222.062500	1	obsgroup
obs739	199.718750	1	obsgroup
obs740	179.656250	1	obsgroup
obs741	161.458333	1	obsgroup
obs742	148.239583	1	obsgroup
obs743	136.229167	1	obsgroup
obs744	128.729167	1	obsgroup
obs745	128.000000	1	obsgroup
obs746	124.468750	1	obsgroup
obs747	113.937500	1	obsgroup
obs748	1743.458333	1	obsgroup
obs749	10635.000000	1	obsgroup
obs750	6694.166667	1	obsgroup
obs751	4200.937500	1	obsgroup
obs752	2337.083333	1	obsgroup
obs753	1659.895833	1	obsgroup
obs754	1635.520833	1	obsgroup
obs755	3092.812500	1	obsgroup
obs756	3098.020833	1	obsgroup
obs757	2190.104167	1	obsgroup
obs758	1350.416667	1	obsgroup
obs759	991.322917	1	obsgroup
obs760	1152.812500	1	obsgroup
obs761	944.656250	1	obsgroup
obs762	844.281250	1	obsgroup
obs763	789.666667	1	obsgroup
obs764	679.979167	1	obsgroup
obs765	569.197917	1	obsgroup
obs766	475.583333	1	obsgroup
obs767	412.062500	1	obsgroup
obs768	364.604167	1	obsgroup
obs769	349.750000	1	obsgroup
obs770	430.593750	1	obsgroup
obs771	402.531250	1	obsgroup
obs772	443.895833	1	obsgroup
obs773	402.416667	1	obsgroup
obs774	360.885417	1	obsgroup
obs775	325.583333	1	obsgroup
obs776	305.187500	1	obsgroup
obs777	294.156250	1	obsgroup
obs778	323.864583	1	obsgroup
obs779	641.031250	1	obsgroup
obs780	665.802083	1	obsgroup
obs781	733.395833	1	obsgroup
obs782	1959.062500	1	obsgroup
obs783	1980.833333	1	obsgroup
obs784	1975.729167	1	obsgroup
obs785	1285.729167	1	obsgroup
obs786	1219.375000	1	obsgroup
obs787	994.291667	1	obsgroup
obs788	852.385417	1	obsgroup
obs789	740.218750	1	obsgroup
obs790	744.791667	1	obsgroup
obs791	713.656250	1	obsgroup
obs792	665.875000	1	obsgroup
obs793	717.447917	1	obsgroup
obs794	1267.083333	1	obsgroup
obs795	1607.083333	1	obsgroup
obs796	1590.000000	1	obsgroup
obs797	1085.406250	1	obsgroup
obs798	951.136842	1	obsgroup
obs799	1229.791667	1	obsgroup
obs800	1201.041667	1	obsgroup
obs801	1246.956522	1	obsgroup
obs802	1117.812500	1	obsgroup
obs803	1302.708333	1	obsgroup
obs804	1257.812500	1	obsgroup
obs805	3436.666667	1	obsgroup
obs806	5634.895833	1	obsgroup
obs807	2995.312500	1	obsgroup
obs808	1800.520833	1	obsgroup
obs809	1260.833333	1	obsgroup
obs810	1965.625000	1	obsgroup
obs811	7877.500000	1	obsgroup
obs812	7107.395833	1	obsgroup
obs813	3014.421053	1	obsgroup
obs814	1881.354167	1	obsgroup
obs815	1436.875000	1	obsgroup
obs816	1195.000000	1	obsgroup
obs817	1000.947917	1	obsgroup
obs818	1043.354167	1	obsgroup
obs819	1072.020833	1	obsgroup
obs820	6201.666667	1	obsgroup
obs821	5328.958333	1	obsgroup
obs822	3134.479167	1	obsgroup
obs823	2110.104167	1	obsgroup
obs824	1667.812500	1	obsgroup
obs825	1403.437500	1	obsgroup
obs826	1193.645833	1	obsgroup
obs827	1042.250000	1	obsgroup
obs828	912.989583	1	obsgroup
obs829	826.166667	1	obsgroup
obs830	781.552083	1	obsgroup
obs831	750.135417	1	obsgroup
obs832	901.364583	1	obsgroup
obs833	1188.854167	1	obsgroup
obs834	1035.687500	1	obsgroup
obs835	983.958333	1	obsgroup
obs836	895.218750	1	obsgroup
obs837	1110.468750	1	obsgroup
obs838	1648.125000	1	obsgroup
obs839	1419.375000	1	obsgroup
obs840	1455.833333	1	obsgroup
obs841	1860.208333	1	obsgroup
obs842	1515.312500	1	obsgroup
obs843	1306.145833	1	obsgroup
obs844	1177.812500	1	obsgroup
obs845	1121.135417	1	obsgroup
obs846	849.375000	1	obsgroup
obs847	1421.406250	1	obsgroup
obs848	1654.479167	1	obsgroup
obs849	1275.520833	1	obsgroup
obs850	984.937500	1	obsgroup
obs851	937.437500	1	obsgroup
obs852	1123.437500	1	obsgroup
obs853	969.427083	1	obsgroup
obs854	1041.145833	1	obsgroup
obs855	1628.020833	1	obsgroup
obs856	1670.416667	1	obsgroup
obs857	1284.791667	1	obsgroup
obs858	983.572917	1	obsgroup
obs859	802.895833	1	obsgroup
obs860	689.843750	1	obsgroup
obs861	563.197917	1	obsgroup
obs862	478.072917	1	obsgroup
obs863	421.927083	1	obsgroup
obs864	393.250000	1	obsgroup
obs865	387.583333	1	obsgroup
obs866	362.333333	1	obsgroup
obs867	328.000000	1	obsgroup
obs868	285.750000	1	obsgroup
obs869	248.062500	1	obsgroup
obs870	218.750000	1	obsgroup
obs871	201.864583	1	obsgroup
obs872	199.937500	1	obsgroup
obs873	284.750000	1	obsgroup
obs874	310.437500	1	obsgroup
obs875	451.875000	1	obsgroup
obs876	1182.395833	1	obsgroup
obs877	1786.458333	1	obsgroup
obs878	1218.708333	1	obsgroup
obs879	841.572917	1	obsgroup
obs880	650.114583	1	obsgroup
obs881	521.125000	1	obsgroup
obs882	427.864583	1	obsgroup
obs883	372.666667	1	obsgroup
obs884	363.708333	1	obsgroup
obs885	320.072917	1	obsgroup
obs886	864.157895	1	obsgroup
obs887	2521.875000	1	obsgroup
obs888	1676.842105	1	obsgroup
obs889	1197.187500	1	obsgroup
obs890	1092.395833	1	obsgroup
obs891	1156.979167	1	obsgroup
obs892	1039.822917	1	obsgroup
obs893	803.020833	1	obsgroup
obs894	641.864583	1	obsgroup
obs895	542.395833	1	obsgroup
obs896	457.489583	1	obsgroup
obs897	385.875000	1	obsgroup
obs898	336.020833	1	obsgroup
obs899	296.312500	1	obsgroup
obs900	275.718750	1	obsgroup
obs901	267.937500	1	obsgroup
obs902	231.145833	1	obsgroup
obs903	210.156250	1	obsgroup
obs904	205.156250	1	obsgroup
obs905	424.427083	1	obsgroup
obs906	499.583333	1	obsgroup
obs907	431.739583	1	obsgroup
obs908	521.500000	1	obsgroup
obs909	493.083333	1	obsgroup
obs910	398.645833	1	obsgroup
obs911	326.489583	1	obsgroup
obs912	287.427083	1	obsgroup
obs913	298.125000	1	obsgroup
obs914	263.708333	1	obsgroup
obs915	235.520833	1	obsgroup
obs916	212.718750	1	obsgroup
obs917	191.854167	1	obsgroup
obs918	173.718750	1	obsgroup
obs919	158.572917	1	obsgroup
obs920	146.333333	1	obsgroup
obs921	134.541667	1	obsgroup
obs922	125.166667	1	obsgroup
obs923	118.927083	1	obsgroup
obs924	110.812500	1	obsgroup
obs925	106.625000	1	obsgroup
obs926	102.621875	1	obsgroup
obs927	98.900000	1	obsgroup
obs928	98.900000	1	obsgroup
obs929	98.691667	1	obsgroup
obs930	94.900000	1	obsgroup
obs931	93.930208	1	obsgroup
obs932	93.125000	1	obsgroup
obs933	88.664583	1	obsgroup
obs934	82.768750	1	obsgroup
obs935	81.137500	1	obsgroup
obs936	76.415625	1	obsgroup
obs937	74.450000	1	obsgroup
obs938	71.088542	1	obsgroup
obs939	67.941667	1	obsgroup
obs940	67.700000	1	obsgroup
obs941	66.200000	1	obsgroup
obs942	66.033333	1	obsgroup
obs943	63.116667	1	obsgroup
obs944	61.516667	1	obsgroup
obs945	58.346875	1	obsgroup
obs946	56.815625	1	obsgroup
obs947	54.643750	1	obsgroup