pcf
* control data
restart  estimation
    8  3287     8     0     1
    1     1 single point   1   0   0
  5.0   2.0   0.3  0.03    10  999  lamforgive  derforgive
  3.0   3.0 0.001  0
  0.1
   30  0.01     3     3  0.01     3
    1     1     1     1
* parameter groups
fc           relative 0.01  0.0  switch  2.0 parabolic
beta         relative 0.01  0.0  switch  2.0 parabolic
perc         relative 0.01  0.0  switch  2.0 parabolic
uzl          relative 0.01  0.0  switch  2.0 parabolic
k0           relative 0.01  0.0  switch  2.0 parabolic
k1           relative 0.01  0.0  switch  2.0 parabolic
k2           relative 0.01  0.0  switch  2.0 parabolic
et_mult      relative 0.01  0.0  switch  2.0 parabolic
* parameter data
fc           none relative   279.8479     50.000000  600.000000      fc              1.0000        0.0000      1
beta         none relative   1.238121     1.000000    6.000000       beta            1.0000        0.0000      1
perc         none relative   0.187136     0.000100    0.500000       perc            1.0000        0.0000      1
uzl          none relative   1.112796     0.100000   75.000000       uzl             1.0000        0.0000      1
k0           none relative   0.5875       0.050000    0.700000       k0              1.0000        0.0000      1
k1           none relative   0.286322     0.010000    0.400000       k1              1.0000        0.0000      1
k2           none relative   0.0322	  0.000100    0.150000       k2              1.0000        0.0000      1
et_mult      none relative   1.00000      0.100000    10.00000       et_mult         1.0000        0.0000      1
* observation groups
obsgroup
* observation data
obs1	1412.531250	1	obsgroup
obs2	1630.208333	1	obsgroup
obs3	1646.666667	1	obsgroup
obs4	1920.729167	1	obsgroup
obs5	2470.104167	1	obsgroup
obs6	2561.562500	1	obsgroup
obs7	2714.062500	1	obsgroup
obs8	2631.770833	1	obsgroup
obs9	2387.500000	1	obsgroup
obs10	1900.104167	1	obsgroup
obs11	1269.843750	1	obsgroup
obs12	789.822917	1	obsgroup
obs13	704.312500	1	obsgroup
obs14	708.895833	1	obsgroup
obs15	678.031250	1	obsgroup
obs16	663.750000	1	obsgroup
obs17	871.687500	1	obsgroup
obs18	880.479167	1	obsgroup
obs19	869.104167	1	obsgroup
obs20	763.510417	1	obsgroup
obs21	577.166667	1	obsgroup
obs22	401.885417	1	obsgroup
obs23	295.333333	1	obsgroup
obs24	236.958333	1	obsgroup
obs25	242.208333	1	obsgroup
obs26	251.625000	1	obsgroup
obs27	258.916667	1	obsgroup
obs28	263.666667	1	obsgroup
obs29	297.604167	1	obsgroup
obs30	366.000000	1	obsgroup
obs31	370.062500	1	obsgroup
obs32	373.604167	1	obsgroup
obs33	413.791667	1	obsgroup
obs34	586.979167	1	obsgroup
obs35	582.656250	1	obsgroup
obs36	583.489583	1	obsgroup
obs37	582.395833	1	obsgroup
obs38	520.927083	1	obsgroup
obs39	402.750000	1	obsgroup
obs40	279.000000	1	obsgroup
obs41	279.000000	1	obsgroup
obs42	279.000000	1	obsgroup
obs43	282.031250	1	obsgroup
obs44	284.000000	1	obsgroup
obs45	286.041667	1	obsgroup
obs46	288.666667	1	obsgroup
obs47	292.000000	1	obsgroup
obs48	292.989583	1	obsgroup
obs49	297.000000	1	obsgroup
obs50	297.000000	1	obsgroup
obs51	293.854167	1	obsgroup
obs52	287.958333	1	obsgroup
obs53	266.385417	1	obsgroup
obs54	246.958333	1	obsgroup
obs55	248.458333	1	obsgroup
obs56	250.000000	1	obsgroup
obs57	252.666667	1	obsgroup
obs58	254.000000	1	obsgroup
obs59	255.625000	1	obsgroup
obs60	258.000000	1	obsgroup
obs61	258.000000	1	obsgroup
obs62	258.000000	1	obsgroup
obs63	258.000000	1	obsgroup
obs64	245.020833	1	obsgroup
obs65	217.000000	1	obsgroup
obs66	217.000000	1	obsgroup
obs67	217.000000	1	obsgroup
obs68	217.333333	1	obsgroup
obs69	217.083333	1	obsgroup
obs70	217.166667	1	obsgroup
obs71	211.718750	1	obsgroup
obs72	208.000000	1	obsgroup
obs73	208.000000	1	obsgroup
obs74	209.927083	1	obsgroup
obs75	213.000000	1	obsgroup
obs76	213.000000	1	obsgroup
obs77	213.000000	1	obsgroup
obs78	213.000000	1	obsgroup
obs79	213.000000	1	obsgroup
obs80	215.291667	1	obsgroup
obs81	216.583333	1	obsgroup
obs82	216.833333	1	obsgroup
obs83	217.083333	1	obsgroup
obs84	217.250000	1	obsgroup
obs85	411.833333	1	obsgroup
obs86	881.229167	1	obsgroup
obs87	1030.416667	1	obsgroup
obs88	1270.416667	1	obsgroup
obs89	1726.458333	1	obsgroup
obs90	2785.520833	1	obsgroup
obs91	3446.458333	1	obsgroup
obs92	3398.437500	1	obsgroup
obs93	3396.666667	1	obsgroup
obs94	3297.291667	1	obsgroup
obs95	2580.104167	1	obsgroup
obs96	1665.416667	1	obsgroup
obs97	1114.739583	1	obsgroup
obs98	956.250000	1	obsgroup
obs99	804.125000	1	obsgroup
obs100	559.666667	1	obsgroup
obs101	569.687500	1	obsgroup
obs102	570.052083	1	obsgroup
obs103	570.000000	1	obsgroup
obs104	571.979167	1	obsgroup
obs105	438.552083	1	obsgroup
obs106	268.427083	1	obsgroup
obs107	208.000000	1	obsgroup
obs108	208.000000	1	obsgroup
obs109	520.364583	1	obsgroup
obs110	1066.250000	1	obsgroup
obs111	1070.000000	1	obsgroup
obs112	1070.000000	1	obsgroup
obs113	949.625000	1	obsgroup
obs114	810.052083	1	obsgroup
obs115	710.791667	1	obsgroup
obs116	635.031250	1	obsgroup
obs117	1475.593750	1	obsgroup
obs118	2354.895833	1	obsgroup
obs119	2559.479167	1	obsgroup
obs120	2409.583333	1	obsgroup
obs121	1917.291667	1	obsgroup
obs122	1913.333333	1	obsgroup
obs123	1640.000000	1	obsgroup
obs124	1400.000000	1	obsgroup
obs125	1206.395833	1	obsgroup
obs126	753.364583	1	obsgroup
obs127	585.791667	1	obsgroup
obs128	585.000000	1	obsgroup
obs129	585.000000	1	obsgroup
obs130	585.312500	1	obsgroup
obs131	585.000000	1	obsgroup
obs132	585.125000	1	obsgroup
obs133	586.312500	1	obsgroup
obs134	586.250000	1	obsgroup
obs135	587.875000	1	obsgroup
obs136	501.979167	1	obsgroup
obs137	450.031250	1	obsgroup
obs138	503.708333	1	obsgroup
obs139	644.687500	1	obsgroup
obs140	871.531250	1	obsgroup
obs141	911.000000	1	obsgroup
obs142	965.875000	1	obsgroup
obs143	1400.729167	1	obsgroup
obs144	1306.458333	1	obsgroup
obs145	1060.416667	1	obsgroup
obs146	1062.291667	1	obsgroup
obs147	1337.395833	1	obsgroup
obs148	1398.958333	1	obsgroup
obs149	1003.468750	1	obsgroup
obs150	726.375000	1	obsgroup
obs151	793.395833	1	obsgroup
obs152	884.583333	1	obsgroup
obs153	1891.979167	1	obsgroup
obs154	5550.729167	1	obsgroup
obs155	5559.583333	1	obsgroup
obs156	4957.083333	1	obsgroup
obs157	2974.166667	1	obsgroup
obs158	1596.145833	1	obsgroup
obs159	1140.937500	1	obsgroup
obs160	1124.375000	1	obsgroup
obs161	1112.500000	1	obsgroup
obs162	1586.458333	1	obsgroup
obs163	1370.312500	1	obsgroup
obs164	1097.500000	1	obsgroup
obs165	1011.791667	1	obsgroup
obs166	881.375000	1	obsgroup
obs167	750.000000	1	obsgroup
obs168	667.041667	1	obsgroup
obs169	538.031250	1	obsgroup
obs170	470.614583	1	obsgroup
obs171	451.968750	1	obsgroup
obs172	342.260417	1	obsgroup
obs173	290.864583	1	obsgroup
obs174	262.000000	1	obsgroup
obs175	256.968750	1	obsgroup
obs176	229.458333	1	obsgroup
obs177	216.958333	1	obsgroup
obs178	227.270833	1	obsgroup
obs179	250.000000	1	obsgroup
obs180	250.000000	1	obsgroup
obs181	250.000000	1	obsgroup
obs182	195.822917	1	obsgroup
obs183	159.000000	1	obsgroup
obs184	159.000000	1	obsgroup
obs185	159.000000	1	obsgroup
obs186	158.937500	1	obsgroup
obs187	158.937500	1	obsgroup
obs188	158.343750	1	obsgroup
obs189	158.937500	1	obsgroup
obs190	141.697917	1	obsgroup
obs191	129.000000	1	obsgroup
obs192	129.000000	1	obsgroup
obs193	118.062500	1	obsgroup
obs194	113.000000	1	obsgroup
obs195	113.000000	1	obsgroup
obs196	113.000000	1	obsgroup
obs197	105.647917	1	obsgroup
obs198	107.000000	1	obsgroup
obs199	107.000000	1	obsgroup
obs200	107.000000	1	obsgroup
obs201	107.000000	1	obsgroup
obs202	107.000000	1	obsgroup
obs203	107.000000	1	obsgroup
obs204	107.000000	1	obsgroup
obs205	107.000000	1	obsgroup
obs206	107.000000	1	obsgroup
obs207	107.000000	1	obsgroup
obs208	107.000000	1	obsgroup
obs209	107.000000	1	obsgroup
obs210	107.000000	1	obsgroup
obs211	107.000000	1	obsgroup
obs212	107.000000	1	obsgroup
obs213	107.000000	1	obsgroup
obs214	107.000000	1	obsgroup
obs215	107.000000	1	obsgroup
obs216	107.000000	1	obsgroup
obs217	107.000000	1	obsgroup
obs218	107.000000	1	obsgroup
obs219	107.000000	1	obsgroup
obs220	107.000000	1	obsgroup
obs221	107.000000	1	obsgroup
obs222	107.000000	1	obsgroup
obs223	106.781250	1	obsgroup
obs224	105.437500	1	obsgroup
obs225	105.500000	1	obsgroup
obs226	105.156250	1	obsgroup
obs227	105.031250	1	obsgroup
obs228	105.218750	1	obsgroup
obs229	105.031250	1	obsgroup
obs230	104.093750	1	obsgroup
obs231	104.093750	1	obsgroup
obs232	104.000000	1	obsgroup
obs233	104.000000	1	obsgroup
obs234	104.000000	1	obsgroup
obs235	181.000000	1	obsgroup
obs236	303.104167	1	obsgroup
obs237	308.125000	1	obsgroup
obs238	308.375000	1	obsgroup
obs239	374.812500	1	obsgroup
obs240	416.000000	1	obsgroup
obs241	415.375000	1	obsgroup
obs242	412.875000	1	obsgroup
obs243	411.000000	1	obsgroup
obs244	411.000000	1	obsgroup
obs245	410.947917	1	obsgroup
obs246	408.135417	1	obsgroup
obs247	406.000000	1	obsgroup
obs248	406.000000	1	obsgroup
obs249	406.000000	1	obsgroup
obs250	406.156250	1	obsgroup
obs251	406.000000	1	obsgroup
obs252	400.937500	1	obsgroup
obs253	400.000000	1	obsgroup
obs254	400.000000	1	obsgroup
obs255	400.000000	1	obsgroup
obs256	398.333333	1	obsgroup
obs257	395.364583	1	obsgroup
obs258	395.000000	1	obsgroup
obs259	395.000000	1	obsgroup
obs260	395.052083	1	obsgroup
obs261	392.187500	1	obsgroup
obs262	419.020833	1	obsgroup
obs263	523.052083	1	obsgroup
obs264	523.000000	1	obsgroup
obs265	522.739583	1	obsgroup
obs266	519.145833	1	obsgroup
obs267	518.000000	1	obsgroup
obs268	515.135417	1	obsgroup
obs269	537.906250	1	obsgroup
obs270	578.489583	1	obsgroup
obs271	575.000000	1	obsgroup
obs272	570.677083	1	obsgroup
obs273	0.000000	0	obsgroup
obs274	0.000000	0	obsgroup
obs275	610.812500	1	obsgroup
obs276	605.479167	1	obsgroup
obs277	618.187500	1	obsgroup
obs278	656.125000	1	obsgroup
obs279	651.343750	1	obsgroup
obs280	665.562500	1	obsgroup
obs281	666.687500	1	obsgroup
obs282	661.093750	1	obsgroup
obs283	658.052083	1	obsgroup
obs284	680.062500	1	obsgroup
obs285	673.031250	1	obsgroup
obs286	666.125000	1	obsgroup
obs287	660.520833	1	obsgroup
obs288	652.947917	1	obsgroup
obs289	646.083333	1	obsgroup
obs290	638.104167	1	obsgroup
obs291	629.375000	1	obsgroup
obs292	620.541667	1	obsgroup
obs293	613.354167	1	obsgroup
obs294	621.052083	1	obsgroup
obs295	676.250000	1	obsgroup
obs296	950.875000	1	obsgroup
obs297	967.927083	1	obsgroup
obs298	1019.197917	1	obsgroup
obs299	1142.291667	1	obsgroup
obs300	1133.750000	1	obsgroup
obs301	1134.062500	1	obsgroup
obs302	1063.385417	1	obsgroup
obs303	850.906250	1	obsgroup
obs304	680.395833	1	obsgroup
obs305	596.520833	1	obsgroup
obs306	501.104167	1	obsgroup
obs307	335.708333	1	obsgroup
obs308	292.645833	1	obsgroup
obs309	251.447917	1	obsgroup
obs310	140.531250	1	obsgroup
obs311	340.968750	1	obsgroup
obs312	914.260417	1	obsgroup
obs313	1125.833333	1	obsgroup
obs314	1129.166667	1	obsgroup
obs315	1181.875000	1	obsgroup
obs316	1199.791667	1	obsgroup
obs317	848.656250	1	obsgroup
obs318	485.750000	1	obsgroup
obs319	640.968750	1	obsgroup
obs320	738.260417	1	obsgroup
obs321	905.031250	1	obsgroup
obs322	942.583333	1	obsgroup
obs323	1110.000000	1	obsgroup
obs324	1106.145833	1	obsgroup
obs325	1050.916667	1	obsgroup
obs326	901.010417	1	obsgroup
obs327	976.958333	1	obsgroup
obs328	733.552083	1	obsgroup
obs329	456.385417	1	obsgroup
obs330	395.000000	1	obsgroup
obs331	634.427083	1	obsgroup
obs332	1018.854167	1	obsgroup
obs333	1016.041667	1	obsgroup
obs334	1156.458333	1	obsgroup
obs335	1878.750000	1	obsgroup
obs336	2126.770833	1	obsgroup
obs337	2342.291667	1	obsgroup
obs338	2304.895833	1	obsgroup
obs339	1874.895833	1	obsgroup
obs340	1546.875000	1	obsgroup
obs341	1378.229167	1	obsgroup
obs342	1208.854167	1	obsgroup
obs343	1408.645833	1	obsgroup
obs344	1591.875000	1	obsgroup
obs345	1026.250000	1	obsgroup
obs346	1055.833333	1	obsgroup
obs347	1113.854167	1	obsgroup
obs348	1228.333333	1	obsgroup
obs349	1510.729167	1	obsgroup
obs350	2607.812500	1	obsgroup
obs351	3515.729167	1	obsgroup
obs352	3465.520833	1	obsgroup
obs353	3411.145833	1	obsgroup
obs354	3379.166667	1	obsgroup
obs355	3331.666667	1	obsgroup
obs356	2986.666667	1	obsgroup
obs357	1717.395833	1	obsgroup
obs358	1382.083333	1	obsgroup
obs359	1346.458333	1	obsgroup
obs360	1322.291667	1	obsgroup
obs361	1303.229167	1	obsgroup
obs362	1678.125000	1	obsgroup
obs363	2781.875000	1	obsgroup
obs364	2868.854167	1	obsgroup
obs365	2783.645833	1	obsgroup
obs366	2554.166667	1	obsgroup
obs367	1904.583333	1	obsgroup
obs368	1249.270833	1	obsgroup
obs369	968.583333	1	obsgroup
obs370	946.437500	1	obsgroup
obs371	858.364583	1	obsgroup
obs372	784.125000	1	obsgroup
obs373	873.906250	1	obsgroup
obs374	939.000000	1	obsgroup
obs375	942.375000	1	obsgroup
obs376	908.927083	1	obsgroup
obs377	612.260417	1	obsgroup
obs378	706.302083	1	obsgroup
obs379	1310.833333	1	obsgroup
obs380	1437.812500	1	obsgroup
obs381	1605.312500	1	obsgroup
obs382	1839.166667	1	obsgroup
obs383	2023.020833	1	obsgroup
obs384	2623.750000	1	obsgroup
obs385	3494.687500	1	obsgroup
obs386	3474.687500	1	obsgroup
obs387	3456.354167	1	obsgroup
obs388	3351.979167	1	obsgroup
obs389	3089.687500	1	obsgroup
obs390	2333.125000	1	obsgroup
obs391	1420.104167	1	obsgroup
obs392	996.791667	1	obsgroup
obs393	880.312500	1	obsgroup
obs394	874.187500	1	obsgroup
obs395	864.666667	1	obsgroup
obs396	800.968750	1	obsgroup
obs397	804.583333	1	obsgroup
obs398	822.864583	1	obsgroup
obs399	759.645833	1	obsgroup
obs400	598.104167	1	obsgroup
obs401	489.031250	1	obsgroup
obs402	419.812500	1	obsgroup
obs403	390.000000	1	obsgroup
obs404	390.000000	1	obsgroup
obs405	390.000000	1	obsgroup
obs406	390.000000	1	obsgroup
obs407	390.000000	1	obsgroup
obs408	390.000000	1	obsgroup
obs409	388.437500	1	obsgroup
obs410	287.708333	1	obsgroup
obs411	290.052083	1	obsgroup
obs412	296.583333	1	obsgroup
obs413	375.687500	1	obsgroup
obs414	730.229167	1	obsgroup
obs415	831.489583	1	obsgroup
obs416	827.500000	1	obsgroup
obs417	822.000000	1	obsgroup
obs418	817.885417	1	obsgroup
obs419	756.916667	1	obsgroup
obs420	575.677083	1	obsgroup
obs421	526.020833	1	obsgroup
obs422	510.552083	1	obsgroup
obs423	463.927083	1	obsgroup
obs424	368.760417	1	obsgroup
obs425	437.208333	1	obsgroup
obs426	751.802083	1	obsgroup
obs427	1067.208333	1	obsgroup
obs428	1255.520833	1	obsgroup
obs429	1660.937500	1	obsgroup
obs430	1891.041667	1	obsgroup
obs431	1467.708333	1	obsgroup
obs432	1436.458333	1	obsgroup
obs433	1462.604167	1	obsgroup
obs434	1841.458333	1	obsgroup
obs435	3304.791667	1	obsgroup
obs436	3482.604167	1	obsgroup
obs437	3466.086957	1	obsgroup
obs438	3133.541667	1	obsgroup
obs439	2994.166667	1	obsgroup
obs440	2755.000000	1	obsgroup
obs441	2269.895833	1	obsgroup
obs442	2079.791667	1	obsgroup
obs443	1553.437500	1	obsgroup
obs444	984.437500	1	obsgroup
obs445	808.229167	1	obsgroup
obs446	800.812500	1	obsgroup
obs447	689.770833	1	obsgroup
obs448	539.000000	1	obsgroup
obs449	0.000000	0	obsgroup
obs450	0.000000	0	obsgroup
obs451	0.000000	0	obsgroup
obs452	827.895833	1	obsgroup
obs453	1059.479167	1	obsgroup
obs454	0.000000	0	obsgroup
obs455	0.000000	0	obsgroup
obs456	1906.595745	1	obsgroup
obs457	2515.937500	1	obsgroup
obs458	2498.229167	1	obsgroup
obs459	2477.395833	1	obsgroup
obs460	2484.583333	1	obsgroup
obs461	2503.541667	1	obsgroup
obs462	2503.958333	1	obsgroup
obs463	2396.145833	1	obsgroup
obs464	1791.458333	1	obsgroup
obs465	1174.062500	1	obsgroup
obs466	1079.270833	1	obsgroup
obs467	1032.708333	1	obsgroup
obs468	1033.125000	1	obsgroup
obs469	1032.395833	1	obsgroup
obs470	1035.416667	1	obsgroup
obs471	1395.729167	1	obsgroup
obs472	1951.354167	1	obsgroup
obs473	2058.020833	1	obsgroup
obs474	1764.583333	1	obsgroup
obs475	1539.166667	1	obsgroup
obs476	1172.604167	1	obsgroup
obs477	794.187500	1	obsgroup
obs478	586.427083	1	obsgroup
obs479	666.000000	1	obsgroup
obs480	931.791667	1	obsgroup
obs481	1941.666667	1	obsgroup
obs482	1694.583333	1	obsgroup
obs483	1232.083333	1	obsgroup
obs484	1112.916667	1	obsgroup
obs485	1293.645833	1	obsgroup
obs486	1300.000000	1	obsgroup
obs487	1300.000000	1	obsgroup
obs488	1234.385417	1	obsgroup
obs489	962.697917	1	obsgroup
obs490	783.000000	1	obsgroup
obs491	694.322917	1	obsgroup
obs492	657.625000	1	obsgroup
obs493	660.572917	1	obsgroup
obs494	707.645833	1	obsgroup
obs495	679.000000	1	obsgroup
obs496	682.468750	1	obsgroup
obs497	914.656250	1	obsgroup
obs498	1113.958333	1	obsgroup
obs499	1119.614583	1	obsgroup
obs500	944.291667	1	obsgroup
obs501	801.093750	1	obsgroup
obs502	731.250000	1	obsgroup
obs503	721.000000	1	obsgroup
obs504	721.000000	1	obsgroup
obs505	721.000000	1	obsgroup
obs506	721.000000	1	obsgroup
obs507	721.000000	1	obsgroup
obs508	619.041667	1	obsgroup
obs509	570.000000	1	obsgroup
obs510	732.531250	1	obsgroup
obs511	1000.937500	1	obsgroup
obs512	1079.375000	1	obsgroup
obs513	1987.812500	1	obsgroup
obs514	2149.687500	1	obsgroup
obs515	1877.291667	1	obsgroup
obs516	1622.604167	1	obsgroup
obs517	2047.083333	1	obsgroup
obs518	2010.208333	1	obsgroup
obs519	1811.145833	1	obsgroup
obs520	1524.166667	1	obsgroup
obs521	1295.520833	1	obsgroup
obs522	1092.802083	1	obsgroup
obs523	890.072917	1	obsgroup
obs524	753.937500	1	obsgroup
obs525	690.479167	1	obsgroup
obs526	666.781250	1	obsgroup
obs527	646.593750	1	obsgroup
obs528	598.666667	1	obsgroup
obs529	551.604167	1	obsgroup
obs530	548.375000	1	obsgroup
obs531	522.333333	1	obsgroup
obs532	434.562500	1	obsgroup
obs533	346.427083	1	obsgroup
obs534	342.989583	1	obsgroup
obs535	338.979167	1	obsgroup
obs536	336.583333	1	obsgroup
obs537	333.083333	1	obsgroup
obs538	336.333333	1	obsgroup
obs539	333.583333	1	obsgroup
obs540	308.979167	1	obsgroup
obs541	242.395833	1	obsgroup
obs542	207.385417	1	obsgroup
obs543	168.510417	1	obsgroup
obs544	159.291667	1	obsgroup
obs545	159.000000	1	obsgroup
obs546	158.281250	1	obsgroup
obs547	158.093750	1	obsgroup
obs548	159.458333	1	obsgroup
obs549	159.000000	1	obsgroup
obs550	159.000000	1	obsgroup
obs551	159.000000	1	obsgroup
obs552	159.000000	1	obsgroup
obs553	159.000000	1	obsgroup
obs554	144.458333	1	obsgroup
obs555	101.736458	1	obsgroup
obs556	95.600000	1	obsgroup
obs557	95.600000	1	obsgroup
obs558	95.600000	1	obsgroup
obs559	95.600000	1	obsgroup
obs560	95.600000	1	obsgroup
obs561	95.600000	1	obsgroup
obs562	95.804167	1	obsgroup
obs563	96.183333	1	obsgroup
obs564	95.687500	1	obsgroup
obs565	475.725000	1	obsgroup
obs566	800.072917	1	obsgroup
obs567	608.093750	1	obsgroup
obs568	414.291667	1	obsgroup
obs569	315.541667	1	obsgroup
obs570	244.406250	1	obsgroup
obs571	187.000000	1	obsgroup
obs572	149.000000	1	obsgroup
obs573	149.000000	1	obsgroup
obs574	149.000000	1	obsgroup
obs575	149.031250	1	obsgroup
obs576	128.625000	1	obsgroup
obs577	100.103125	1	obsgroup
obs578	92.761458	1	obsgroup
obs579	98.400000	1	obsgroup
obs580	98.400000	1	obsgroup
obs581	98.400000	1	obsgroup
obs582	98.400000	1	obsgroup
obs583	98.400000	1	obsgroup
obs584	98.400000	1	obsgroup
obs585	98.400000	1	obsgroup
obs586	98.400000	1	obsgroup
obs587	98.020833	1	obsgroup
obs588	97.379167	1	obsgroup
obs589	0.000000	0	obsgroup
obs590	0.000000	0	obsgroup
obs591	100.079167	1	obsgroup
obs592	99.862500	1	obsgroup
obs593	100.350000	1	obsgroup
obs594	99.104167	1	obsgroup
obs595	98.400000	1	obsgroup
obs596	98.400000	1	obsgroup
obs597	98.400000	1	obsgroup
obs598	98.400000	1	obsgroup
obs599	98.400000	1	obsgroup
obs600	96.766667	1	obsgroup
obs601	97.875000	1	obsgroup
obs602	98.400000	1	obsgroup
obs603	98.400000	1	obsgroup
obs604	98.400000	1	obsgroup
obs605	98.400000	1	obsgroup
obs606	98.400000	1	obsgroup
obs607	95.658333	1	obsgroup
obs608	95.600000	1	obsgroup
obs609	95.600000	1	obsgroup
obs610	95.600000	1	obsgroup
obs611	97.641667	1	obsgroup
obs612	98.400000	1	obsgroup
obs613	231.047917	1	obsgroup
obs614	457.270833	1	obsgroup
obs615	534.000000	1	obsgroup
obs616	530.812500	1	obsgroup
obs617	528.125000	1	obsgroup
obs618	527.687500	1	obsgroup
obs619	525.239583	1	obsgroup
obs620	523.000000	1	obsgroup
obs621	523.000000	1	obsgroup
obs622	521.906250	1	obsgroup
obs623	531.427083	1	obsgroup
obs624	562.093750	1	obsgroup
obs625	605.166667	1	obsgroup
obs626	601.052083	1	obsgroup
obs627	598.031250	1	obsgroup
obs628	596.000000	1	obsgroup
obs629	592.562500	1	obsgroup
obs630	622.041667	1	obsgroup
obs631	648.583333	1	obsgroup
obs632	646.187500	1	obsgroup
obs633	645.041667	1	obsgroup
obs634	642.125000	1	obsgroup
obs635	637.947917	1	obsgroup
obs636	633.625000	1	obsgroup
obs637	628.812500	1	obsgroup
obs638	615.489583	1	obsgroup
obs639	585.000000	1	obsgroup
obs640	582.031250	1	obsgroup
obs641	578.385417	1	obsgroup
obs642	575.156250	1	obsgroup
obs643	592.604167	1	obsgroup
obs644	656.000000	1	obsgroup
obs645	649.885417	1	obsgroup
obs646	644.260417	1	obsgroup
obs647	636.989583	1	obsgroup
obs648	627.739583	1	obsgroup
obs649	621.375000	1	obsgroup
obs650	616.895833	1	obsgroup
obs651	610.656250	1	obsgroup
obs652	603.552083	1	obsgroup
obs653	607.281250	1	obsgroup
obs654	614.968750	1	obsgroup
obs655	608.125000	1	obsgroup
obs656	600.270833	1	obsgroup
obs657	610.197917	1	obsgroup
obs658	608.322917	1	obsgroup
obs659	600.114583	1	obsgroup
obs660	590.968750	1	obsgroup
obs661	576.302083	1	obsgroup
obs662	566.802083	1	obsgroup
obs663	521.906250	1	obsgroup
obs664	428.677083	1	obsgroup
obs665	329.333333	1	obsgroup
obs666	271.000000	1	obsgroup
obs667	267.416667	1	obsgroup
obs668	264.031250	1	obsgroup
obs669	264.604167	1	obsgroup
obs670	185.635417	1	obsgroup
obs671	140.010417	1	obsgroup
obs672	129.312500	1	obsgroup
obs673	155.937500	1	obsgroup
obs674	159.291667	1	obsgroup
obs675	159.000000	1	obsgroup
obs676	156.718750	1	obsgroup
obs677	126.572917	1	obsgroup
obs678	104.187500	1	obsgroup
obs679	100.275000	1	obsgroup
obs680	97.116667	1	obsgroup
obs681	96.008333	1	obsgroup
obs682	95.997917	1	obsgroup
obs683	100.756250	1	obsgroup
obs684	98.914583	1	obsgroup
obs685	98.562500	1	obsgroup
obs686	102.420833	1	obsgroup
obs687	584.697917	1	obsgroup
obs688	520.270833	1	obsgroup
obs689	254.906250	1	obsgroup
obs690	206.656250	1	obsgroup
obs691	419.093750	1	obsgroup
obs692	1049.083333	1	obsgroup
obs693	1121.979167	1	obsgroup
obs694	1110.729167	1	obsgroup
obs695	1089.270833	1	obsgroup
obs696	747.614583	1	obsgroup
obs697	461.427083	1	obsgroup
obs698	376.708333	1	obsgroup
obs699	314.114583	1	obsgroup
obs700	310.000000	1	obsgroup
obs701	279.458333	1	obsgroup
obs702	209.760417	1	obsgroup
obs703	174.000000	1	obsgroup
obs704	165.250000	1	obsgroup
obs705	154.083333	1	obsgroup
obs706	152.000000	1	obsgroup
obs707	142.677083	1	obsgroup
obs708	123.229167	1	obsgroup
obs709	119.000000	1	obsgroup
obs710	118.093750	1	obsgroup
obs711	111.062500	1	obsgroup
obs712	111.968750	1	obsgroup
obs713	110.718750	1	obsgroup
obs714	110.000000	1	obsgroup
obs715	110.000000	1	obsgroup
obs716	110.000000	1	obsgroup
obs717	112.437500	1	obsgroup
obs718	113.000000	1	obsgroup
obs719	113.000000	1	obsgroup
obs720	115.812500	1	obsgroup
obs721	116.000000	1	obsgroup
obs722	116.000000	1	obsgroup
obs723	116.000000	1	obsgroup
obs724	115.062500	1	obsgroup
obs725	113.000000	1	obsgroup
obs726	119.979167	1	obsgroup
obs727	131.083333	1	obsgroup
obs728	143.645833	1	obsgroup
obs729	182.604167	1	obsgroup
obs730	191.166667	1	obsgroup
obs731	1249.968750	1	obsgroup
obs732	2076.458333	1	obsgroup
obs733	2037.500000	1	obsgroup
obs734	2021.250000	1	obsgroup
obs735	1984.479167	1	obsgroup
obs736	1644.791667	1	obsgroup
obs737	1371.770833	1	obsgroup
obs738	836.093750	1	obsgroup
obs739	457.093750	1	obsgroup
obs740	318.270833	1	obsgroup
obs741	292.312500	1	obsgroup
obs742	216.135417	1	obsgroup
obs743	199.927083	1	obsgroup
obs744	238.000000	1	obsgroup
obs745	238.625000	1	obsgroup
obs746	239.541667	1	obsgroup
obs747	239.708333	1	obsgroup
obs748	327.770833	1	obsgroup
obs749	307.437500	1	obsgroup
obs750	170.645833	1	obsgroup
obs751	4593.708333	1	obsgroup
obs752	6515.208333	1	obsgroup
obs753	6524.791667	1	obsgroup
obs754	6393.541667	1	obsgroup
obs755	5706.770833	1	obsgroup
obs756	4877.916667	1	obsgroup
obs757	3891.666667	1	obsgroup
obs758	2953.541667	1	obsgroup
obs759	2258.645833	1	obsgroup
obs760	1721.666667	1	obsgroup
obs761	1105.864583	1	obsgroup
obs762	803.000000	1	obsgroup
obs763	806.104167	1	obsgroup
obs764	808.760417	1	obsgroup
obs765	816.875000	1	obsgroup
obs766	813.312500	1	obsgroup
obs767	809.072917	1	obsgroup
obs768	675.822917	1	obsgroup
obs769	612.750000	1	obsgroup
obs770	671.000000	1	obsgroup
obs771	865.989583	1	obsgroup
obs772	1128.020833	1	obsgroup
obs773	1104.166667	1	obsgroup
obs774	857.052083	1	obsgroup
obs775	482.104167	1	obsgroup
obs776	337.000000	1	obsgroup
obs777	337.000000	1	obsgroup
obs778	340.697917	1	obsgroup
obs779	344.968750	1	obsgroup
obs780	350.177083	1	obsgroup
obs781	356.000000	1	obsgroup
obs782	734.083333	1	obsgroup
obs783	1263.208333	1	obsgroup
obs784	1828.854167	1	obsgroup
obs785	2037.291667	1	obsgroup
obs786	2163.125000	1	obsgroup
obs787	1865.416667	1	obsgroup
obs788	1196.729167	1	obsgroup
obs789	816.010417	1	obsgroup
obs790	775.677083	1	obsgroup
obs791	853.395833	1	obsgroup
obs792	905.000000	1	obsgroup
obs793	904.687500	1	obsgroup
obs794	940.291667	1	obsgroup
obs795	1101.979167	1	obsgroup
obs796	1515.104167	1	obsgroup
obs797	1614.062500	1	obsgroup
obs798	1680.312500	1	obsgroup
obs799	1810.416667	1	obsgroup
obs800	1737.916667	1	obsgroup
obs801	1545.652174	1	obsgroup
obs802	1407.604167	1	obsgroup
obs803	1380.531915	1	obsgroup
obs804	1857.083333	1	obsgroup
obs805	2264.687500	1	obsgroup
obs806	3236.562500	1	obsgroup
obs807	4067.083333	1	obsgroup
obs808	3570.416667	1	obsgroup
obs809	3607.395833	1	obsgroup
obs810	4040.520833	1	obsgroup
obs811	3067.968750	1	obsgroup
obs812	1103.229167	1	obsgroup
obs813	3273.854167	1	obsgroup
obs814	4225.208333	1	obsgroup
obs815	4107.604167	1	obsgroup
obs816	3827.604167	1	obsgroup
obs817	3650.625000	1	obsgroup
obs818	4099.583333	1	obsgroup
obs819	4709.270833	1	obsgroup
obs820	3398.958333	1	obsgroup
obs821	2421.354167	1	obsgroup
obs822	3172.291667	1	obsgroup
obs823	3236.562500	1	obsgroup
obs824	3211.979167	1	obsgroup
obs825	3179.139785	1	obsgroup
obs826	2763.750000	1	obsgroup
obs827	2013.750000	1	obsgroup
obs828	1279.062500	1	obsgroup
obs829	1014.479167	1	obsgroup
obs830	1009.968750	1	obsgroup
obs831	877.031250	1	obsgroup
obs832	807.916667	1	obsgroup
obs833	808.395833	1	obsgroup
obs834	947.447917	1	obsgroup
obs835	1170.208333	1	obsgroup
obs836	1175.208333	1	obsgroup
obs837	1662.083333	1	obsgroup
obs838	2153.333333	1	obsgroup
obs839	1906.666667	1	obsgroup
obs840	1581.041667	1	obsgroup
obs841	1797.604167	1	obsgroup
obs842	1766.666667	1	obsgroup
obs843	1520.000000	1	obsgroup
obs844	1437.708333	1	obsgroup
obs845	1420.000000	1	obsgroup
obs846	1169.270833	1	obsgroup
obs847	1015.489583	1	obsgroup
obs848	953.250000	1	obsgroup
obs849	1328.458333	1	obsgroup
obs850	1238.958333	1	obsgroup
obs851	1003.020833	1	obsgroup
obs852	1036.236559	1	obsgroup
obs853	1444.687500	1	obsgroup
obs854	2012.307692	1	obsgroup
obs855	1693.409091	1	obsgroup
obs856	1474.946237	1	obsgroup
obs857	1228.854167	1	obsgroup
obs858	1042.312500	1	obsgroup
obs859	785.656250	1	obsgroup
obs860	529.229167	1	obsgroup
obs861	377.250000	1	obsgroup
obs862	304.208333	1	obsgroup
obs863	297.541667	1	obsgroup
obs864	298.593750	1	obsgroup
obs865	300.750000	1	obsgroup
obs866	301.000000	1	obsgroup
obs867	292.250000	1	obsgroup
obs868	280.444444	1	obsgroup
obs869	279.000000	1	obsgroup
obs870	279.000000	1	obsgroup
obs871	279.000000	1	obsgroup
obs872	315.031250	1	obsgroup
obs873	357.052083	1	obsgroup
obs874	328.250000	1	obsgroup
obs875	332.458333	1	obsgroup
obs876	992.697917	1	obsgroup
obs877	1295.104167	1	obsgroup
obs878	1946.770833	1	obsgroup
obs879	1240.593750	1	obsgroup
obs880	827.666667	1	obsgroup
obs881	709.250000	1	obsgroup
obs882	690.875000	1	obsgroup
obs883	617.229167	1	obsgroup
obs884	507.427083	1	obsgroup
obs885	507.375000	1	obsgroup
obs886	705.239583	1	obsgroup
obs887	2884.479167	1	obsgroup
obs888	2838.854167	1	obsgroup
obs889	2163.958333	1	obsgroup
obs890	1365.104167	1	obsgroup
obs891	1020.625000	1	obsgroup
obs892	867.229167	1	obsgroup
obs893	599.531250	1	obsgroup
obs894	565.468750	1	obsgroup
obs895	745.406250	1	obsgroup
obs896	631.802083	1	obsgroup
obs897	477.187500	1	obsgroup
obs898	424.250000	1	obsgroup
obs899	394.114583	1	obsgroup
obs900	393.020833	1	obsgroup
obs901	391.406250	1	obsgroup
obs902	351.673684	1	obsgroup
obs903	340.333333	1	obsgroup
obs904	337.364583	1	obsgroup
obs905	435.562500	1	obsgroup
obs906	633.666667	1	obsgroup
obs907	645.145833	1	obsgroup
obs908	646.916667	1	obsgroup
obs909	609.906250	1	obsgroup
obs910	452.010417	1	obsgroup
obs911	347.750000	1	obsgroup
obs912	323.895833	1	obsgroup
obs913	324.000000	1	obsgroup
obs914	323.270833	1	obsgroup
obs915	321.604167	1	obsgroup
obs916	309.458333	1	obsgroup
obs917	214.781250	1	obsgroup
obs918	160.875000	1	obsgroup
obs919	156.000000	1	obsgroup
obs920	156.000000	1	obsgroup
obs921	192.572917	1	obsgroup
obs922	197.000000	1	obsgroup
obs923	178.104167	1	obsgroup
obs924	170.000000	1	obsgroup
obs925	170.000000	1	obsgroup
obs926	150.666667	1	obsgroup
obs927	140.468750	1	obsgroup
obs928	139.000000	1	obsgroup
obs929	138.833333	1	obsgroup
obs930	139.000000	1	obsgroup
obs931	138.583333	1	obsgroup
obs932	138.708333	1	obsgroup
obs933	138.875000	1	obsgroup
obs934	139.000000	1	obsgroup
obs935	116.592708	1	obsgroup
obs936	81.287500	1	obsgroup
obs937	87.594792	1	obsgroup
obs938	98.283333	1	obsgroup
obs939	98.370833	1	obsgroup