pcf
* control data
restart  estimation
    8  3287     8     0     1
    1     1 single point   1   0   0
  5.0   2.0   0.3  0.03    10  999  lamforgive  derforgive
  3.0   3.0 0.001  0
  0.1
   30  0.01     3     3  0.01     3
    1     1     1     1
* parameter groups
fc           relative 0.01  0.0  switch  2.0 parabolic
beta         relative 0.01  0.0  switch  2.0 parabolic
perc         relative 0.01  0.0  switch  2.0 parabolic
uzl          relative 0.01  0.0  switch  2.0 parabolic
k0           relative 0.01  0.0  switch  2.0 parabolic
k1           relative 0.01  0.0  switch  2.0 parabolic
k2           relative 0.01  0.0  switch  2.0 parabolic
et_mult      relative 0.01  0.0  switch  2.0 parabolic
* parameter data
fc           none relative   154.832     50.000000  600.000000      fc              1.0000        0.0000      1
beta         none relative   1.57995      1.000000    6.000000       beta            1.0000        0.0000      1
perc         none relative   0.205273     0.000100    0.500000       perc            1.0000        0.0000      1
uzl          none relative   13.2152      0.100000   75.000000       uzl             1.0000        0.0000      1
k0           none relative   0.354371     0.050000    0.700000       k0              1.0000        0.0000      1
k1           none relative   0.386157     0.010000    0.400000       k1              1.0000        0.0000      1
k2           none relative   0.087767	  0.000100    0.150000       k2              1.0000        0.0000      1
et_mult      none relative   0.347954     0.100000    10.00000       et_mult         1.0000        0.0000      1
* observation groups
obsgroup
* observation data
obs1	3586.145833	1	obsgroup
obs2	2851.875000	1	obsgroup
obs3	1748.020833	1	obsgroup
obs4	1363.854167	1	obsgroup
obs5	3733.541667	1	obsgroup
obs6	3717.083333	1	obsgroup
obs7	2229.687500	1	obsgroup
obs8	1478.333333	1	obsgroup
obs9	1260.416667	1	obsgroup
obs10	1056.791667	1	obsgroup
obs11	880.333333	1	obsgroup
obs12	849.500000	1	obsgroup
obs13	897.604167	1	obsgroup
obs14	1005.635417	1	obsgroup
obs15	850.156250	1	obsgroup
obs16	1472.354167	1	obsgroup
obs17	1619.375000	1	obsgroup
obs18	1451.770833	1	obsgroup
obs19	1073.364583	1	obsgroup
obs20	847.041667	1	obsgroup
obs21	700.729167	1	obsgroup
obs22	623.385417	1	obsgroup
obs23	560.593750	1	obsgroup
obs24	575.406250	1	obsgroup
obs25	1113.010417	1	obsgroup
obs26	978.968750	1	obsgroup
obs27	783.187500	1	obsgroup
obs28	659.843750	1	obsgroup
obs29	576.229167	1	obsgroup
obs30	536.375000	1	obsgroup
obs31	533.312500	1	obsgroup
obs32	510.593750	1	obsgroup
obs33	553.041667	1	obsgroup
obs34	532.229167	1	obsgroup
obs35	614.802083	1	obsgroup
obs36	664.093750	1	obsgroup
obs37	614.250000	1	obsgroup
obs38	550.760417	1	obsgroup
obs39	493.552083	1	obsgroup
obs40	442.322917	1	obsgroup
obs41	405.270833	1	obsgroup
obs42	571.750000	1	obsgroup
obs43	850.718750	1	obsgroup
obs44	842.000000	1	obsgroup
obs45	801.250000	1	obsgroup
obs46	844.510417	1	obsgroup
obs47	816.062500	1	obsgroup
obs48	757.895833	1	obsgroup
obs49	647.260417	1	obsgroup
obs50	557.364583	1	obsgroup
obs51	484.197917	1	obsgroup
obs52	423.677083	1	obsgroup
obs53	375.489583	1	obsgroup
obs54	351.812500	1	obsgroup
obs55	599.072917	1	obsgroup
obs56	993.020833	1	obsgroup
obs57	830.208333	1	obsgroup
obs58	791.416667	1	obsgroup
obs59	664.531250	1	obsgroup
obs60	562.437500	1	obsgroup
obs61	495.322917	1	obsgroup
obs62	443.843750	1	obsgroup
obs63	414.153846	1	obsgroup
obs64	372.218750	1	obsgroup
obs65	339.864583	1	obsgroup
obs66	314.770833	1	obsgroup
obs67	313.562500	1	obsgroup
obs68	287.864583	1	obsgroup
obs69	286.250000	1	obsgroup
obs70	365.218750	1	obsgroup
obs71	1104.979167	1	obsgroup
obs72	952.979167	1	obsgroup
obs73	718.076087	1	obsgroup
obs74	642.770833	1	obsgroup
obs75	698.541667	1	obsgroup
obs76	708.052083	1	obsgroup
obs77	604.114583	1	obsgroup
obs78	520.937500	1	obsgroup
obs79	461.125000	1	obsgroup
obs80	512.000000	1	obsgroup
obs81	868.739583	1	obsgroup
obs82	771.093750	1	obsgroup
obs83	633.875000	1	obsgroup
obs84	665.291667	1	obsgroup
obs85	1171.552083	1	obsgroup
obs86	1076.208333	1	obsgroup
obs87	1083.541667	1	obsgroup
obs88	4263.125000	1	obsgroup
obs89	3170.520833	1	obsgroup
obs90	1973.854167	1	obsgroup
obs91	1414.895833	1	obsgroup
obs92	1339.583333	1	obsgroup
obs93	1386.666667	1	obsgroup
obs94	1107.812500	1	obsgroup
obs95	936.989583	1	obsgroup
obs96	927.843750	1	obsgroup
obs97	944.062500	1	obsgroup
obs98	1101.593750	1	obsgroup
obs99	951.041667	1	obsgroup
obs100	805.000000	1	obsgroup
obs101	753.604167	1	obsgroup
obs102	870.729167	1	obsgroup
obs103	1102.750000	1	obsgroup
obs104	1169.062500	1	obsgroup
obs105	1668.541667	1	obsgroup
obs106	1373.020833	1	obsgroup
obs107	1289.687500	1	obsgroup
obs108	1190.312500	1	obsgroup
obs109	1196.562500	1	obsgroup
obs110	1145.312500	1	obsgroup
obs111	995.937500	1	obsgroup
obs112	783.489583	1	obsgroup
obs113	647.739583	1	obsgroup
obs114	640.281250	1	obsgroup
obs115	600.562500	1	obsgroup
obs116	549.041667	1	obsgroup
obs117	1072.458333	1	obsgroup
obs118	1486.770833	1	obsgroup
obs119	1486.770833	1	obsgroup
obs120	1292.812500	1	obsgroup
obs121	1145.833333	1	obsgroup
obs122	1109.583333	1	obsgroup
obs123	1798.020833	1	obsgroup
obs124	1710.520833	1	obsgroup
obs125	1129.010417	1	obsgroup
obs126	898.145833	1	obsgroup
obs127	771.416667	1	obsgroup
obs128	688.979167	1	obsgroup
obs129	641.250000	1	obsgroup
obs130	756.718750	1	obsgroup
obs131	807.322917	1	obsgroup
obs132	723.906250	1	obsgroup
obs133	648.104167	1	obsgroup
obs134	617.812500	1	obsgroup
obs135	632.562500	1	obsgroup
obs136	632.260417	1	obsgroup
obs137	598.250000	1	obsgroup
obs138	629.343750	1	obsgroup
obs139	707.177083	1	obsgroup
obs140	1013.885417	1	obsgroup
obs141	916.833333	1	obsgroup
obs142	924.354167	1	obsgroup
obs143	906.375000	1	obsgroup
obs144	834.427083	1	obsgroup
obs145	729.041667	1	obsgroup
obs146	786.406250	1	obsgroup
obs147	841.416667	1	obsgroup
obs148	721.895833	1	obsgroup
obs149	737.968750	1	obsgroup
obs150	699.822917	1	obsgroup
obs151	744.125000	1	obsgroup
obs152	871.822917	1	obsgroup
obs153	4472.166667	1	obsgroup
obs154	4000.312500	1	obsgroup
obs155	3320.104167	1	obsgroup
obs156	2443.750000	1	obsgroup
obs157	1634.166667	1	obsgroup
obs158	2135.937500	1	obsgroup
obs159	1475.104167	1	obsgroup
obs160	1205.520833	1	obsgroup
obs161	1713.958333	1	obsgroup
obs162	1691.875000	1	obsgroup
obs163	1203.020833	1	obsgroup
obs164	921.104167	1	obsgroup
obs165	751.218750	1	obsgroup
obs166	636.145833	1	obsgroup
obs167	580.875000	1	obsgroup
obs168	571.458333	1	obsgroup
obs169	513.208333	1	obsgroup
obs170	458.052083	1	obsgroup
obs171	427.114583	1	obsgroup
obs172	406.166667	1	obsgroup
obs173	370.041667	1	obsgroup
obs174	340.708333	1	obsgroup
obs175	315.104167	1	obsgroup
obs176	292.072917	1	obsgroup
obs177	271.927083	1	obsgroup
obs178	252.250000	1	obsgroup
obs179	235.250000	1	obsgroup
obs180	218.406250	1	obsgroup
obs181	204.343750	1	obsgroup
obs182	192.062500	1	obsgroup
obs183	228.552083	1	obsgroup
obs184	218.906250	1	obsgroup
obs185	196.114583	1	obsgroup
obs186	180.385417	1	obsgroup
obs187	168.552083	1	obsgroup
obs188	156.125000	1	obsgroup
obs189	146.531250	1	obsgroup
obs190	137.281250	1	obsgroup
obs191	129.104167	1	obsgroup
obs192	123.020833	1	obsgroup
obs193	118.250000	1	obsgroup
obs194	112.416667	1	obsgroup
obs195	108.375000	1	obsgroup
obs196	104.729167	1	obsgroup
obs197	99.608333	1	obsgroup
obs198	95.939583	1	obsgroup
obs199	92.627083	1	obsgroup
obs200	89.864583	1	obsgroup
obs201	86.920833	1	obsgroup
obs202	84.450000	1	obsgroup
obs203	80.933333	1	obsgroup
obs204	77.055208	1	obsgroup
obs205	74.885417	1	obsgroup
obs206	72.406250	1	obsgroup
obs207	69.454737	1	obsgroup
obs208	67.040625	1	obsgroup
obs209	65.463542	1	obsgroup
obs210	64.053125	1	obsgroup
obs211	62.211458	1	obsgroup
obs212	60.884375	1	obsgroup
obs213	60.567708	1	obsgroup
obs214	59.314583	1	obsgroup
obs215	57.979167	1	obsgroup
obs216	56.827083	1	obsgroup
obs217	55.938542	1	obsgroup
obs218	54.250000	1	obsgroup
obs219	52.564583	1	obsgroup
obs220	51.622917	1	obsgroup
obs221	51.026042	1	obsgroup
obs222	50.833333	1	obsgroup
obs223	49.797917	1	obsgroup
obs224	48.428125	1	obsgroup
obs225	47.179167	1	obsgroup
obs226	44.440625	1	obsgroup
obs227	42.745833	1	obsgroup
obs228	42.327083	1	obsgroup
obs229	41.216667	1	obsgroup
obs230	40.647917	1	obsgroup
obs231	40.634375	1	obsgroup
obs232	40.175000	1	obsgroup
obs233	39.284375	1	obsgroup
obs234	39.043750	1	obsgroup
obs235	39.186458	1	obsgroup
obs236	38.111458	1	obsgroup
obs237	36.362500	1	obsgroup
obs238	35.143750	1	obsgroup
obs239	35.040625	1	obsgroup
obs240	35.059375	1	obsgroup
obs241	34.698958	1	obsgroup
obs242	36.372917	1	obsgroup
obs243	37.533333	1	obsgroup
obs244	55.695833	1	obsgroup
obs245	64.302083	1	obsgroup
obs246	46.629167	1	obsgroup
obs247	40.528125	1	obsgroup
obs248	38.250000	1	obsgroup
obs249	37.075000	1	obsgroup
obs250	37.494792	1	obsgroup
obs251	41.731250	1	obsgroup
obs252	49.345833	1	obsgroup
obs253	50.552083	1	obsgroup
obs254	44.031250	1	obsgroup
obs255	39.796875	1	obsgroup
obs256	37.432292	1	obsgroup
obs257	35.500000	1	obsgroup
obs258	34.728125	1	obsgroup
obs259	37.056250	1	obsgroup
obs260	40.069792	1	obsgroup
obs261	58.692708	1	obsgroup
obs262	160.994792	1	obsgroup
obs263	518.687500	1	obsgroup
obs264	235.864583	1	obsgroup
obs265	142.197917	1	obsgroup
obs266	109.208333	1	obsgroup
obs267	108.250000	1	obsgroup
obs268	94.452083	1	obsgroup
obs269	82.530208	1	obsgroup
obs270	75.741667	1	obsgroup
obs271	69.781250	1	obsgroup
obs272	65.525000	1	obsgroup
obs273	62.021875	1	obsgroup
obs274	58.659375	1	obsgroup
obs275	56.250000	1	obsgroup
obs276	54.312500	1	obsgroup
obs277	53.212500	1	obsgroup
obs278	51.725000	1	obsgroup
obs279	49.262500	1	obsgroup
obs280	47.832292	1	obsgroup
obs281	47.694792	1	obsgroup
obs282	73.921875	1	obsgroup
obs283	241.281250	1	obsgroup
obs284	305.666667	1	obsgroup
obs285	179.010417	1	obsgroup
obs286	132.729167	1	obsgroup
obs287	108.739583	1	obsgroup
obs288	95.491667	1	obsgroup
obs289	86.427083	1	obsgroup
obs290	79.602083	1	obsgroup
obs291	74.682292	1	obsgroup
obs292	70.452083	1	obsgroup
obs293	66.921875	1	obsgroup
obs294	63.745833	1	obsgroup
obs295	64.425000	1	obsgroup
obs296	74.009375	1	obsgroup
obs297	709.447917	1	obsgroup
obs298	1605.208333	1	obsgroup
obs299	1202.656250	1	obsgroup
obs300	936.729167	1	obsgroup
obs301	625.541667	1	obsgroup
obs302	613.166667	1	obsgroup
obs303	539.458333	1	obsgroup
obs304	694.208333	1	obsgroup
obs305	614.364583	1	obsgroup
obs306	1986.864583	1	obsgroup
obs307	1134.500000	1	obsgroup
obs308	693.447917	1	obsgroup
obs309	509.020833	1	obsgroup
obs310	399.979167	1	obsgroup
obs311	704.080000	1	obsgroup
obs312	935.854167	1	obsgroup
obs313	985.312500	1	obsgroup
obs314	1612.604167	1	obsgroup
obs315	1043.333333	1	obsgroup
obs316	854.520833	1	obsgroup
obs317	703.656250	1	obsgroup
obs318	1181.677083	1	obsgroup
obs319	1650.833333	1	obsgroup
obs320	2659.583333	1	obsgroup
obs321	1803.645833	1	obsgroup
obs322	3068.645833	1	obsgroup
obs323	1834.583333	1	obsgroup
obs324	1293.020833	1	obsgroup
obs325	974.229167	1	obsgroup
obs326	863.500000	1	obsgroup
obs327	766.968750	1	obsgroup
obs328	619.281250	1	obsgroup
obs329	538.843750	1	obsgroup
obs330	646.375000	1	obsgroup
obs331	1421.145833	1	obsgroup
obs332	1039.322917	1	obsgroup
obs333	839.010417	1	obsgroup
obs334	1927.791667	1	obsgroup
obs335	4255.416667	1	obsgroup
obs336	2852.604167	1	obsgroup
obs337	1898.541667	1	obsgroup
obs338	1303.437500	1	obsgroup
obs339	985.166667	1	obsgroup
obs340	865.812500	1	obsgroup
obs341	863.937500	1	obsgroup
obs342	1478.072917	1	obsgroup
obs343	3728.854167	1	obsgroup
obs344	3744.791667	1	obsgroup
obs345	3932.604167	1	obsgroup
obs346	5521.562500	1	obsgroup
obs347	7212.500000	1	obsgroup
obs348	4774.583333	1	obsgroup
obs349	2770.833333	1	obsgroup
obs350	1785.416667	1	obsgroup
obs351	1257.500000	1	obsgroup
obs352	1012.739583	1	obsgroup
obs353	841.520833	1	obsgroup
obs354	741.135417	1	obsgroup
obs355	663.770833	1	obsgroup
obs356	602.656250	1	obsgroup
obs357	544.354167	1	obsgroup
obs358	492.645833	1	obsgroup
obs359	492.145833	1	obsgroup
obs360	545.218750	1	obsgroup
obs361	564.343750	1	obsgroup
obs362	3497.072917	1	obsgroup
obs363	3266.458333	1	obsgroup
obs364	1756.145833	1	obsgroup
obs365	1169.166667	1	obsgroup
obs366	895.916667	1	obsgroup
obs367	742.208333	1	obsgroup
obs368	634.375000	1	obsgroup
obs369	555.343750	1	obsgroup
obs370	498.739583	1	obsgroup
obs371	462.312500	1	obsgroup
obs372	451.281250	1	obsgroup
obs373	524.010417	1	obsgroup
obs374	493.989583	1	obsgroup
obs375	448.677083	1	obsgroup
obs376	410.781250	1	obsgroup
obs377	1141.812500	1	obsgroup
obs378	3919.062500	1	obsgroup
obs379	3406.458333	1	obsgroup
obs380	3214.583333	1	obsgroup
obs381	12989.687500	1	obsgroup
obs382	6615.729167	1	obsgroup
obs383	3356.458333	1	obsgroup
obs384	2766.145833	1	obsgroup
obs385	1864.479167	1	obsgroup
obs386	1477.291667	1	obsgroup
obs387	1463.645833	1	obsgroup
obs388	1138.750000	1	obsgroup
obs389	922.697917	1	obsgroup
obs390	790.375000	1	obsgroup
obs391	690.177083	1	obsgroup
obs392	620.697917	1	obsgroup
obs393	579.854167	1	obsgroup
obs394	539.937500	1	obsgroup
obs395	489.875000	1	obsgroup
obs396	440.635417	1	obsgroup
obs397	397.312500	1	obsgroup
obs398	363.166667	1	obsgroup
obs399	335.260417	1	obsgroup
obs400	312.593750	1	obsgroup
obs401	351.645833	1	obsgroup
obs402	451.843750	1	obsgroup
obs403	553.687500	1	obsgroup
obs404	582.656250	1	obsgroup
obs405	501.572917	1	obsgroup
obs406	441.687500	1	obsgroup
obs407	405.125000	1	obsgroup
obs408	391.677083	1	obsgroup
obs409	577.166667	1	obsgroup
obs410	605.854167	1	obsgroup
obs411	911.375000	1	obsgroup
obs412	900.666667	1	obsgroup
obs413	699.541667	1	obsgroup
obs414	586.625000	1	obsgroup
obs415	513.229167	1	obsgroup
obs416	453.864583	1	obsgroup
obs417	407.229167	1	obsgroup
obs418	392.708333	1	obsgroup
obs419	369.958333	1	obsgroup
obs420	347.625000	1	obsgroup
obs421	310.114583	1	obsgroup
obs422	283.125000	1	obsgroup
obs423	285.166667	1	obsgroup
obs424	377.739583	1	obsgroup
obs425	549.052083	1	obsgroup
obs426	826.385417	1	obsgroup
obs427	965.572917	1	obsgroup
obs428	812.697917	1	obsgroup
obs429	1157.125000	1	obsgroup
obs430	1051.072917	1	obsgroup
obs431	835.385417	1	obsgroup
obs432	842.947917	1	obsgroup
obs433	1446.040816	1	obsgroup
obs434	2797.319588	1	obsgroup
obs435	2176.875000	1	obsgroup
obs436	1374.583333	1	obsgroup
obs437	1220.978261	1	obsgroup
obs438	1651.562500	1	obsgroup
obs439	1576.041667	1	obsgroup
obs440	2119.791667	1	obsgroup
obs441	1490.312500	1	obsgroup
obs442	1201.145833	1	obsgroup
obs443	1041.916667	1	obsgroup
obs444	903.312500	1	obsgroup
obs445	874.489583	1	obsgroup
obs446	875.031250	1	obsgroup
obs447	772.072917	1	obsgroup
obs448	729.489583	1	obsgroup
obs449	690.718750	1	obsgroup
obs450	726.135417	1	obsgroup
obs451	799.125000	1	obsgroup
obs452	837.166667	1	obsgroup
obs453	1305.156250	1	obsgroup
obs454	3400.416667	1	obsgroup
obs455	3292.473118	1	obsgroup
obs456	2807.187500	1	obsgroup
obs457	2527.083333	1	obsgroup
obs458	1641.458333	1	obsgroup
obs459	1299.583333	1	obsgroup
obs460	3135.833333	1	obsgroup
obs461	1961.145833	1	obsgroup
obs462	1399.375000	1	obsgroup
obs463	1066.562500	1	obsgroup
obs464	901.437500	1	obsgroup
obs465	784.322917	1	obsgroup
obs466	941.479167	1	obsgroup
obs467	901.239583	1	obsgroup
obs468	801.520833	1	obsgroup
obs469	794.895833	1	obsgroup
obs470	1798.416667	1	obsgroup
obs471	4607.916667	1	obsgroup
obs472	3365.416667	1	obsgroup
obs473	1951.041667	1	obsgroup
obs474	1300.729167	1	obsgroup
obs475	990.135417	1	obsgroup
obs476	823.291667	1	obsgroup
obs477	699.614583	1	obsgroup
obs478	626.520833	1	obsgroup
obs479	663.656250	1	obsgroup
obs480	1176.489583	1	obsgroup
obs481	1711.562500	1	obsgroup
obs482	1470.000000	1	obsgroup
obs483	1207.812500	1	obsgroup
obs484	1040.375000	1	obsgroup
obs485	937.343750	1	obsgroup
obs486	831.833333	1	obsgroup
obs487	820.052083	1	obsgroup
obs488	797.062500	1	obsgroup
obs489	732.541667	1	obsgroup
obs490	793.708333	1	obsgroup
obs491	818.416667	1	obsgroup
obs492	1049.312500	1	obsgroup
obs493	1438.020833	1	obsgroup
obs494	1242.708333	1	obsgroup
obs495	1010.083333	1	obsgroup
obs496	1026.020833	1	obsgroup
obs497	1263.541667	1	obsgroup
obs498	1010.333333	1	obsgroup
obs499	960.968750	1	obsgroup
obs500	997.500000	1	obsgroup
obs501	1339.375000	1	obsgroup
obs502	1082.562500	1	obsgroup
obs503	913.260417	1	obsgroup
obs504	839.791667	1	obsgroup
obs505	823.479167	1	obsgroup
obs506	867.239583	1	obsgroup
obs507	799.812500	1	obsgroup
obs508	744.020833	1	obsgroup
obs509	693.708333	1	obsgroup
obs510	729.489583	1	obsgroup
obs511	793.937500	1	obsgroup
obs512	1284.989583	1	obsgroup
obs513	1521.250000	1	obsgroup
obs514	1139.270833	1	obsgroup
obs515	1012.458333	1	obsgroup
obs516	1156.979167	1	obsgroup
obs517	1422.812500	1	obsgroup
obs518	1491.979167	1	obsgroup
obs519	1333.333333	1	obsgroup
obs520	1156.666667	1	obsgroup
obs521	1195.625000	1	obsgroup
obs522	1178.125000	1	obsgroup
obs523	970.802083	1	obsgroup
obs524	801.218750	1	obsgroup
obs525	668.833333	1	obsgroup
obs526	657.708333	1	obsgroup
obs527	651.145833	1	obsgroup
obs528	598.250000	1	obsgroup
obs529	641.760417	1	obsgroup
obs530	618.281250	1	obsgroup
obs531	556.322917	1	obsgroup
obs532	486.083333	1	obsgroup
obs533	440.552083	1	obsgroup
obs534	463.375000	1	obsgroup
obs535	575.541667	1	obsgroup
obs536	512.281250	1	obsgroup
obs537	500.093750	1	obsgroup
obs538	511.843750	1	obsgroup
obs539	477.916667	1	obsgroup
obs540	381.458333	1	obsgroup
obs541	329.614583	1	obsgroup
obs542	306.375000	1	obsgroup
obs543	301.385417	1	obsgroup
obs544	333.343750	1	obsgroup
obs545	319.666667	1	obsgroup
obs546	347.562500	1	obsgroup
obs547	321.541667	1	obsgroup
obs548	284.510417	1	obsgroup
obs549	273.989583	1	obsgroup
obs550	252.052083	1	obsgroup
obs551	231.812500	1	obsgroup
obs552	217.968750	1	obsgroup
obs553	211.520833	1	obsgroup
obs554	195.708333	1	obsgroup
obs555	176.031250	1	obsgroup
obs556	162.968750	1	obsgroup
obs557	155.208333	1	obsgroup
obs558	157.739583	1	obsgroup
obs559	161.291667	1	obsgroup
obs560	147.333333	1	obsgroup
obs561	136.822917	1	obsgroup
obs562	143.093750	1	obsgroup
obs563	170.520833	1	obsgroup
obs564	159.791667	1	obsgroup
obs565	155.468750	1	obsgroup
obs566	162.489583	1	obsgroup
obs567	145.156250	1	obsgroup
obs568	138.968750	1	obsgroup
obs569	127.541667	1	obsgroup
obs570	118.145833	1	obsgroup
obs571	111.791667	1	obsgroup
obs572	107.677083	1	obsgroup
obs573	101.906250	1	obsgroup
obs574	95.712500	1	obsgroup
obs575	91.281250	1	obsgroup
obs576	87.511458	1	obsgroup
obs577	84.067708	1	obsgroup
obs578	81.033333	1	obsgroup
obs579	77.913542	1	obsgroup
obs580	75.206250	1	obsgroup
obs581	72.625000	1	obsgroup
obs582	70.758333	1	obsgroup
obs583	68.702083	1	obsgroup
obs584	66.986458	1	obsgroup
obs585	65.462500	1	obsgroup
obs586	65.465625	1	obsgroup
obs587	62.726042	1	obsgroup
obs588	60.466667	1	obsgroup
obs589	58.928125	1	obsgroup
obs590	57.275000	1	obsgroup
obs591	56.709375	1	obsgroup
obs592	55.387500	1	obsgroup
obs593	54.225000	1	obsgroup
obs594	52.442708	1	obsgroup
obs595	50.698958	1	obsgroup
obs596	49.633333	1	obsgroup
obs597	48.863542	1	obsgroup
obs598	47.454167	1	obsgroup
obs599	46.113542	1	obsgroup
obs600	45.483333	1	obsgroup
obs601	44.555208	1	obsgroup
obs602	43.529167	1	obsgroup
obs603	43.879167	1	obsgroup
obs604	43.679167	1	obsgroup
obs605	40.727083	1	obsgroup
obs606	39.631250	1	obsgroup
obs607	40.409375	1	obsgroup
obs608	39.809375	1	obsgroup
obs609	39.575000	1	obsgroup
obs610	38.617708	1	obsgroup
obs611	37.168750	1	obsgroup
obs612	34.985417	1	obsgroup
obs613	34.200000	1	obsgroup
obs614	33.584375	1	obsgroup
obs615	32.562500	1	obsgroup
obs616	31.375000	1	obsgroup
obs617	30.958333	1	obsgroup
obs618	30.661458	1	obsgroup
obs619	29.670833	1	obsgroup
obs620	28.336458	1	obsgroup
obs621	28.587500	1	obsgroup
obs622	29.352083	1	obsgroup
obs623	29.667708	1	obsgroup
obs624	29.909375	1	obsgroup
obs625	29.548958	1	obsgroup
obs626	29.308333	1	obsgroup
obs627	30.875000	1	obsgroup
obs628	34.166667	1	obsgroup
obs629	30.917708	1	obsgroup
obs630	28.003125	1	obsgroup
obs631	26.608333	1	obsgroup
obs632	25.687500	1	obsgroup
obs633	27.394792	1	obsgroup
obs634	36.841667	1	obsgroup
obs635	41.673958	1	obsgroup
obs636	47.869792	1	obsgroup
obs637	37.853125	1	obsgroup
obs638	31.934375	1	obsgroup
obs639	30.145833	1	obsgroup
obs640	37.895833	1	obsgroup
obs641	53.263542	1	obsgroup
obs642	63.782292	1	obsgroup
obs643	71.259375	1	obsgroup
obs644	88.058333	1	obsgroup
obs645	76.415625	1	obsgroup
obs646	88.981250	1	obsgroup
obs647	69.942708	1	obsgroup
obs648	77.276042	1	obsgroup
obs649	636.757895	1	obsgroup
obs650	599.614583	1	obsgroup
obs651	299.572917	1	obsgroup
obs652	199.156250	1	obsgroup
obs653	149.062500	1	obsgroup
obs654	123.239583	1	obsgroup
obs655	105.635417	1	obsgroup
obs656	92.847917	1	obsgroup
obs657	83.569792	1	obsgroup
obs658	77.696875	1	obsgroup
obs659	73.062500	1	obsgroup
obs660	69.664583	1	obsgroup
obs661	68.454167	1	obsgroup
obs662	64.767708	1	obsgroup
obs663	61.173958	1	obsgroup
obs664	58.550000	1	obsgroup
obs665	56.541667	1	obsgroup
obs666	55.520833	1	obsgroup
obs667	126.056250	1	obsgroup
obs668	213.812500	1	obsgroup
obs669	607.916667	1	obsgroup
obs670	332.979167	1	obsgroup
obs671	234.291667	1	obsgroup
obs672	228.656250	1	obsgroup
obs673	195.166667	1	obsgroup
obs674	170.770833	1	obsgroup
obs675	161.240000	1	obsgroup
obs676	155.583333	1	obsgroup
obs677	151.645833	1	obsgroup
obs678	146.281250	1	obsgroup
obs679	140.843750	1	obsgroup
obs680	133.104167	1	obsgroup
obs681	168.583333	1	obsgroup
obs682	369.333333	1	obsgroup
obs683	509.135417	1	obsgroup
obs684	595.718750	1	obsgroup
obs685	593.697917	1	obsgroup
obs686	3088.750000	1	obsgroup
obs687	1498.541667	1	obsgroup
obs688	877.635417	1	obsgroup
obs689	627.562500	1	obsgroup
obs690	615.520833	1	obsgroup
obs691	2901.770833	1	obsgroup
obs692	2658.229167	1	obsgroup
obs693	1923.854167	1	obsgroup
obs694	1739.270833	1	obsgroup
obs695	1085.437500	1	obsgroup
obs696	922.312500	1	obsgroup
obs697	1189.583333	1	obsgroup
obs698	889.656250	1	obsgroup
obs699	809.270833	1	obsgroup
obs700	714.895833	1	obsgroup
obs701	601.697917	1	obsgroup
obs702	507.489583	1	obsgroup
obs703	434.322917	1	obsgroup
obs704	379.677083	1	obsgroup
obs705	338.197917	1	obsgroup
obs706	304.697917	1	obsgroup
obs707	278.802083	1	obsgroup
obs708	256.322917	1	obsgroup
obs709	238.500000	1	obsgroup
obs710	224.906250	1	obsgroup
obs711	210.750000	1	obsgroup
obs712	197.708333	1	obsgroup
obs713	187.093750	1	obsgroup
obs714	188.604167	1	obsgroup
obs715	178.843750	1	obsgroup
obs716	168.625000	1	obsgroup
obs717	165.843750	1	obsgroup
obs718	162.666667	1	obsgroup
obs719	157.322917	1	obsgroup
obs720	152.552083	1	obsgroup
obs721	145.427083	1	obsgroup
obs722	139.729167	1	obsgroup
obs723	134.145833	1	obsgroup
obs724	138.770833	1	obsgroup
obs725	162.510417	1	obsgroup
obs726	175.291667	1	obsgroup
obs727	5675.052083	1	obsgroup
obs728	5649.062500	1	obsgroup
obs729	8677.395833	1	obsgroup
obs730	3079.270833	1	obsgroup
obs731	1754.062500	1	obsgroup
obs732	1266.041667	1	obsgroup
obs733	1324.062500	1	obsgroup
obs734	1067.229167	1	obsgroup
obs735	1072.604167	1	obsgroup
obs736	898.750000	1	obsgroup
obs737	740.822917	1	obsgroup
obs738	627.916667	1	obsgroup
obs739	544.927083	1	obsgroup
obs740	489.031250	1	obsgroup
obs741	432.364583	1	obsgroup
obs742	389.562500	1	obsgroup
obs743	358.833333	1	obsgroup
obs744	340.427083	1	obsgroup
obs745	336.062500	1	obsgroup
obs746	309.645833	1	obsgroup
obs747	325.020833	1	obsgroup
obs748	2572.812500	1	obsgroup
obs749	13288.541667	1	obsgroup
obs750	7325.833333	1	obsgroup
obs751	5418.437500	1	obsgroup
obs752	2889.479167	1	obsgroup
obs753	2171.145833	1	obsgroup
obs754	2708.333333	1	obsgroup
obs755	6149.375000	1	obsgroup
obs756	4316.250000	1	obsgroup
obs757	2467.083333	1	obsgroup
obs758	1557.395833	1	obsgroup
obs759	1316.458333	1	obsgroup
obs760	2859.687500	1	obsgroup
obs761	1691.354167	1	obsgroup
obs762	1378.125000	1	obsgroup
obs763	1154.479167	1	obsgroup
obs764	927.020833	1	obsgroup
obs765	773.479167	1	obsgroup
obs766	665.697917	1	obsgroup
obs767	593.093750	1	obsgroup
obs768	535.343750	1	obsgroup
obs769	530.114583	1	obsgroup
obs770	866.427083	1	obsgroup
obs771	966.906250	1	obsgroup
obs772	1594.062500	1	obsgroup
obs773	1026.489583	1	obsgroup
obs774	786.385417	1	obsgroup
obs775	669.885417	1	obsgroup
obs776	584.114583	1	obsgroup
obs777	526.197917	1	obsgroup
obs778	551.979167	1	obsgroup
obs779	1092.104167	1	obsgroup
obs780	846.072917	1	obsgroup
obs781	1051.822917	1	obsgroup
obs782	2556.875000	1	obsgroup
obs783	4261.458333	1	obsgroup
obs784	2779.791667	1	obsgroup
obs785	1631.666667	1	obsgroup
obs786	1387.916667	1	obsgroup
obs787	1074.927083	1	obsgroup
obs788	889.822917	1	obsgroup
obs789	769.802083	1	obsgroup
obs790	722.135417	1	obsgroup
obs791	662.947917	1	obsgroup
obs792	594.989583	1	obsgroup
obs793	634.927083	1	obsgroup
obs794	813.864583	1	obsgroup
obs795	1009.322917	1	obsgroup
obs796	1075.093750	1	obsgroup
obs797	840.229167	1	obsgroup
obs798	758.854167	1	obsgroup
obs799	896.322917	1	obsgroup
obs800	971.906250	1	obsgroup
obs801	1259.456522	1	obsgroup
obs802	1054.520833	1	obsgroup
obs803	1430.104167	1	obsgroup
obs804	1156.105263	1	obsgroup
obs805	3342.395833	1	obsgroup
obs806	4788.437500	1	obsgroup
obs807	2508.958333	1	obsgroup
obs808	1734.375000	1	obsgroup
obs809	1265.104167	1	obsgroup
obs810	1840.833333	1	obsgroup
obs811	2334.270833	1	obsgroup
obs812	2011.875000	1	obsgroup
obs813	1508.020833	1	obsgroup
obs814	1252.395833	1	obsgroup
obs815	1195.625000	1	obsgroup
obs816	1076.562500	1	obsgroup
obs817	979.458333	1	obsgroup
obs818	1092.291667	1	obsgroup
obs819	1181.354167	1	obsgroup
obs820	6533.437500	1	obsgroup
obs821	3661.041667	1	obsgroup
obs822	2598.854167	1	obsgroup
obs823	1849.687500	1	obsgroup
obs824	1500.520833	1	obsgroup
obs825	1346.875000	1	obsgroup
obs826	1164.583333	1	obsgroup
obs827	995.291667	1	obsgroup
obs828	864.645833	1	obsgroup
obs829	791.677083	1	obsgroup
obs830	816.437500	1	obsgroup
obs831	911.656250	1	obsgroup
obs832	1020.416667	1	obsgroup
obs833	1051.489583	1	obsgroup
obs834	904.197917	1	obsgroup
obs835	808.270833	1	obsgroup
obs836	762.729167	1	obsgroup
obs837	1600.135417	1	obsgroup
obs838	1827.187500	1	obsgroup
obs839	1764.583333	1	obsgroup
obs840	1842.500000	1	obsgroup
obs841	2732.812500	1	obsgroup
obs842	2054.062500	1	obsgroup
obs843	1903.333333	1	obsgroup
obs844	1987.291667	1	obsgroup
obs845	1843.125000	1	obsgroup
obs846	1363.333333	1	obsgroup
obs847	2072.187500	1	obsgroup
obs848	1856.354167	1	obsgroup
obs849	1430.312500	1	obsgroup
obs850	1143.750000	1	obsgroup
obs851	1680.104167	1	obsgroup
obs852	2081.145833	1	obsgroup
obs853	1563.645833	1	obsgroup
obs854	1803.541667	1	obsgroup
obs855	2412.604167	1	obsgroup
obs856	1954.895833	1	obsgroup
obs857	1408.541667	1	obsgroup
obs858	1140.729167	1	obsgroup
obs859	1072.291667	1	obsgroup
obs860	1051.281250	1	obsgroup
obs861	869.250000	1	obsgroup
obs862	721.218750	1	obsgroup
obs863	638.989583	1	obsgroup
obs864	667.312500	1	obsgroup
obs865	809.718750	1	obsgroup
obs866	854.802083	1	obsgroup
obs867	761.744681	1	obsgroup
obs868	631.578947	1	obsgroup
obs869	520.531250	1	obsgroup
obs870	441.447917	1	obsgroup
obs871	397.864583	1	obsgroup
obs872	449.187500	1	obsgroup
obs873	776.937500	1	obsgroup
obs874	905.291667	1	obsgroup
obs875	1375.416667	1	obsgroup
obs876	1278.541667	1	obsgroup
obs877	933.458333	1	obsgroup
obs878	753.833333	1	obsgroup
obs879	653.031250	1	obsgroup
obs880	566.895833	1	obsgroup
obs881	501.979167	1	obsgroup
obs882	467.791667	1	obsgroup
obs883	474.281250	1	obsgroup
obs884	548.552083	1	obsgroup
obs885	482.979167	1	obsgroup
obs886	583.656250	1	obsgroup
obs887	1229.906250	1	obsgroup
obs888	1055.895833	1	obsgroup
obs889	868.229167	1	obsgroup
obs890	1081.072917	1	obsgroup
obs891	1512.083333	1	obsgroup
obs892	1106.218750	1	obsgroup
obs893	854.791667	1	obsgroup
obs894	721.604167	1	obsgroup
obs895	694.322917	1	obsgroup
obs896	619.166667	1	obsgroup
obs897	529.041667	1	obsgroup
obs898	473.927083	1	obsgroup
obs899	442.333333	1	obsgroup
obs900	467.145833	1	obsgroup
obs901	517.062500	1	obsgroup
obs902	439.041667	1	obsgroup
obs903	390.135417	1	obsgroup
obs904	362.958333	1	obsgroup
obs905	433.958333	1	obsgroup
obs906	500.791667	1	obsgroup
obs907	436.916667	1	obsgroup
obs908	483.822917	1	obsgroup
obs909	538.656250	1	obsgroup
obs910	451.364583	1	obsgroup
obs911	390.166667	1	obsgroup
obs912	351.177083	1	obsgroup
obs913	348.781250	1	obsgroup
obs914	325.614583	1	obsgroup
obs915	344.406250	1	obsgroup
obs916	364.812500	1	obsgroup
obs917	314.458333	1	obsgroup
obs918	281.416667	1	obsgroup
obs919	256.156250	1	obsgroup
obs920	234.625000	1	obsgroup
obs921	213.406250	1	obsgroup
obs922	197.281250	1	obsgroup
obs923	182.708333	1	obsgroup
obs924	169.645833	1	obsgroup
obs925	157.958333	1	obsgroup
obs926	149.156250	1	obsgroup
obs927	143.000000	1	obsgroup
obs928	137.500000	1	obsgroup
obs929	130.354167	1	obsgroup
obs930	125.000000	1	obsgroup
obs931	121.854167	1	obsgroup
obs932	117.666667	1	obsgroup
obs933	114.000000	1	obsgroup
obs934	107.541667	1	obsgroup
obs935	105.083333	1	obsgroup
obs936	101.182292	1	obsgroup
obs937	97.702083	1	obsgroup
obs938	94.575000	1	obsgroup
obs939	93.087500	1	obsgroup
obs940	91.086458	1	obsgroup
obs941	87.668750	1	obsgroup
obs942	85.347917	1	obsgroup
obs943	82.550000	1	obsgroup