pcf
* control data
restart  estimation
    8  3287     8     0     1
    1     1 single point   1   0   0
  5.0   2.0   0.3  0.03    10  999  lamforgive  derforgive
  3.0   3.0 0.001  0
  0.1
   30  0.01     3     3  0.01     3
    1     1     1     1
* parameter groups
fc           relative 0.01  0.0  switch  2.0 parabolic
beta         relative 0.01  0.0  switch  2.0 parabolic
perc         relative 0.01  0.0  switch  2.0 parabolic
uzl          relative 0.01  0.0  switch  2.0 parabolic
k0           relative 0.01  0.0  switch  2.0 parabolic
k1           relative 0.01  0.0  switch  2.0 parabolic
k2           relative 0.01  0.0  switch  2.0 parabolic
et_mult      relative 0.01  0.0  switch  2.0 parabolic
* parameter data
fc           none relative   391.659      50.000000  600.000000      fc              1.0000        0.0000      1
beta         none relative   2.49585      1.000000    6.000000       beta            1.0000        0.0000      1
perc         none relative   0.19992      0.000100    0.500000       perc            1.0000        0.0000      1
uzl          none relative   2.088        0.100000   75.000000       uzl             1.0000        0.0000      1
k0           none relative   0.592536     0.050000    0.700000       k0              1.0000        0.0000      1
k1           none relative   0.294571     0.010000    0.400000       k1              1.0000        0.0000      1
k2           none relative   0.005459	  0.000100    0.150000       k2              1.0000        0.0000      1
et_mult      none relative   1            0.100000    10.00000       et_mult         1.0000        0.0000      1
* observation groups
obsgroup
* observation data
obs1	1070.500000	1	obsgroup
obs2	1235.000000	1	obsgroup
obs3	1342.083333	1	obsgroup
obs4	2125.154639	1	obsgroup
obs5	2379.895833	1	obsgroup
obs6	2270.000000	1	obsgroup
obs7	2060.520833	1	obsgroup
obs8	1514.183673	1	obsgroup
obs9	1007.801980	1	obsgroup
obs10	723.247423	1	obsgroup
obs11	606.343750	1	obsgroup
obs12	564.187500	1	obsgroup
obs13	826.437500	1	obsgroup
obs14	1303.711340	1	obsgroup
obs15	1580.520833	1	obsgroup
obs16	1611.562500	1	obsgroup
obs17	1950.416667	1	obsgroup
obs18	2204.687500	1	obsgroup
obs19	2172.500000	1	obsgroup
obs20	2096.354167	1	obsgroup
obs21	1716.041667	1	obsgroup
obs22	992.525253	1	obsgroup
obs23	699.072917	1	obsgroup
obs24	433.750000	1	obsgroup
obs25	313.197917	1	obsgroup
obs26	318.833333	1	obsgroup
obs27	324.541667	1	obsgroup
obs28	0.000000	0	obsgroup
obs29	0.000000	0	obsgroup
obs30	0.000000	0	obsgroup
obs31	327.572917	1	obsgroup
obs32	328.468750	1	obsgroup
obs33	331.916667	1	obsgroup
obs34	281.291667	1	obsgroup
obs35	181.395833	1	obsgroup
obs36	117.625000	1	obsgroup
obs37	119.541667	1	obsgroup
obs38	121.250000	1	obsgroup
obs39	122.968750	1	obsgroup
obs40	123.750000	1	obsgroup
obs41	124.729167	1	obsgroup
obs42	0.000000	0	obsgroup
obs43	127.125000	1	obsgroup
obs44	128.968750	1	obsgroup
obs45	130.968750	1	obsgroup
obs46	132.604167	1	obsgroup
obs47	133.218750	1	obsgroup
obs48	135.500000	1	obsgroup
obs49	136.000000	1	obsgroup
obs50	134.375000	1	obsgroup
obs51	127.906250	1	obsgroup
obs52	125.312500	1	obsgroup
obs53	69.835417	1	obsgroup
obs54	64.206250	1	obsgroup
obs55	64.281250	1	obsgroup
obs56	64.300000	1	obsgroup
obs57	65.068750	1	obsgroup
obs58	66.006250	1	obsgroup
obs59	64.450000	1	obsgroup
obs60	64.581250	1	obsgroup
obs61	83.041667	1	obsgroup
obs62	98.696875	1	obsgroup
obs63	100.287500	1	obsgroup
obs64	100.703125	1	obsgroup
obs65	101.000000	1	obsgroup
obs66	101.031250	1	obsgroup
obs67	101.093750	1	obsgroup
obs68	100.802083	1	obsgroup
obs69	101.062500	1	obsgroup
obs70	101.531250	1	obsgroup
obs71	102.156250	1	obsgroup
obs72	103.500000	1	obsgroup
obs73	104.478261	1	obsgroup
obs74	105.250000	1	obsgroup
obs75	105.770833	1	obsgroup
obs76	105.958333	1	obsgroup
obs77	106.022472	1	obsgroup
obs78	106.270833	1	obsgroup
obs79	106.604167	1	obsgroup
obs80	106.604167	1	obsgroup
obs81	77.034375	1	obsgroup
obs82	53.883333	1	obsgroup
obs83	53.883333	1	obsgroup
obs84	54.000000	1	obsgroup
obs85	54.933333	1	obsgroup
obs86	55.466667	1	obsgroup
obs87	55.854167	1	obsgroup
obs88	532.718367	1	obsgroup
obs89	1719.479167	1	obsgroup
obs90	2263.571429	1	obsgroup
obs91	2582.187500	1	obsgroup
obs92	2805.833333	1	obsgroup
obs93	2785.937500	1	obsgroup
obs94	2766.632653	1	obsgroup
obs95	2501.041667	1	obsgroup
obs96	1677.938144	1	obsgroup
obs97	1417.812500	1	obsgroup
obs98	1344.583333	1	obsgroup
obs99	1031.854167	1	obsgroup
obs100	724.937500	1	obsgroup
obs101	497.875000	1	obsgroup
obs102	839.742268	1	obsgroup
obs103	913.031250	1	obsgroup
obs104	886.697917	1	obsgroup
obs105	453.515464	1	obsgroup
obs106	345.906250	1	obsgroup
obs107	378.704082	1	obsgroup
obs108	480.340206	1	obsgroup
obs109	512.562500	1	obsgroup
obs110	734.154639	1	obsgroup
obs111	821.635417	1	obsgroup
obs112	522.000000	1	obsgroup
obs113	337.687500	1	obsgroup
obs114	271.750000	1	obsgroup
obs115	212.239583	1	obsgroup
obs116	222.591837	1	obsgroup
obs117	1418.649485	1	obsgroup
obs118	1639.895833	1	obsgroup
obs119	1291.458333	1	obsgroup
obs120	887.855670	1	obsgroup
obs121	518.572917	1	obsgroup
obs122	400.343750	1	obsgroup
obs123	367.645833	1	obsgroup
obs124	358.916667	1	obsgroup
obs125	314.051020	1	obsgroup
obs126	246.645833	1	obsgroup
obs127	185.812500	1	obsgroup
obs128	185.750000	1	obsgroup
obs129	173.781250	1	obsgroup
obs130	174.822917	1	obsgroup
obs131	346.614583	1	obsgroup
obs132	345.406250	1	obsgroup
obs133	337.947917	1	obsgroup
obs134	290.729167	1	obsgroup
obs135	187.666667	1	obsgroup
obs136	146.385417	1	obsgroup
obs137	124.416667	1	obsgroup
obs138	107.562500	1	obsgroup
obs139	152.302083	1	obsgroup
obs140	341.697917	1	obsgroup
obs141	442.530000	1	obsgroup
obs142	626.822917	1	obsgroup
obs143	550.760417	1	obsgroup
obs144	346.113402	1	obsgroup
obs145	223.520833	1	obsgroup
obs146	644.814433	1	obsgroup
obs147	1110.531250	1	obsgroup
obs148	1031.479167	1	obsgroup
obs149	567.885417	1	obsgroup
obs150	303.272727	1	obsgroup
obs151	224.427083	1	obsgroup
obs152	325.781250	1	obsgroup
obs153	1109.536082	1	obsgroup
obs154	929.302083	1	obsgroup
obs155	1903.880000	1	obsgroup
obs156	1960.306122	1	obsgroup
obs157	1150.612245	1	obsgroup
obs158	970.381443	1	obsgroup
obs159	631.479167	1	obsgroup
obs160	573.708333	1	obsgroup
obs161	568.041667	1	obsgroup
obs162	456.690722	1	obsgroup
obs163	239.750000	1	obsgroup
obs164	153.020833	1	obsgroup
obs165	133.375000	1	obsgroup
obs166	134.848485	1	obsgroup
obs167	185.770833	1	obsgroup
obs168	197.531250	1	obsgroup
obs169	187.322917	1	obsgroup
obs170	180.156250	1	obsgroup
obs171	180.010417	1	obsgroup
obs172	175.583333	1	obsgroup
obs173	160.625000	1	obsgroup
obs174	156.416667	1	obsgroup
obs175	116.209375	1	obsgroup
obs176	85.282292	1	obsgroup
obs177	77.700000	1	obsgroup
obs178	76.856250	1	obsgroup
obs179	69.158333	1	obsgroup
obs180	60.167708	1	obsgroup
obs181	56.473958	1	obsgroup
obs182	43.398958	1	obsgroup
obs183	38.800000	1	obsgroup
obs184	38.800000	1	obsgroup
obs185	38.800000	1	obsgroup
obs186	38.800000	1	obsgroup
obs187	38.800000	1	obsgroup
obs188	38.711458	1	obsgroup
obs189	34.596875	1	obsgroup
obs190	34.786458	1	obsgroup
obs191	34.772917	1	obsgroup
obs192	34.759375	1	obsgroup
obs193	34.732292	1	obsgroup
obs194	34.529167	1	obsgroup
obs195	34.447917	1	obsgroup
obs196	34.380208	1	obsgroup
obs197	34.569792	1	obsgroup
obs198	34.596875	1	obsgroup
obs199	34.529167	1	obsgroup
obs200	34.204167	1	obsgroup
obs201	34.434375	1	obsgroup
obs202	34.298958	1	obsgroup
obs203	34.502083	1	obsgroup
obs204	34.610417	1	obsgroup
obs205	34.786458	1	obsgroup
obs206	34.800000	1	obsgroup
obs207	32.692708	1	obsgroup
obs208	28.850000	1	obsgroup
obs209	28.279167	1	obsgroup
obs210	30.414583	1	obsgroup
obs211	31.100000	1	obsgroup
obs212	31.100000	1	obsgroup
obs213	31.100000	1	obsgroup
obs214	31.100000	1	obsgroup
obs215	31.100000	1	obsgroup
obs216	31.100000	1	obsgroup
obs217	31.100000	1	obsgroup
obs218	31.100000	1	obsgroup
obs219	31.100000	1	obsgroup
obs220	31.100000	1	obsgroup
obs221	31.100000	1	obsgroup
obs222	31.100000	1	obsgroup
obs223	39.353125	1	obsgroup
obs224	41.600000	1	obsgroup
obs225	41.614583	1	obsgroup
obs226	41.600000	1	obsgroup
obs227	41.570833	1	obsgroup
obs228	41.600000	1	obsgroup
obs229	41.016667	1	obsgroup
obs230	40.360417	1	obsgroup
obs231	40.258333	1	obsgroup
obs232	38.843750	1	obsgroup
obs233	38.800000	1	obsgroup
obs234	38.800000	1	obsgroup
obs235	38.814583	1	obsgroup
obs236	38.337624	1	obsgroup
obs237	37.500000	1	obsgroup
obs238	37.485417	1	obsgroup
obs239	37.485417	1	obsgroup
obs240	37.485417	1	obsgroup
obs241	36.887500	1	obsgroup
obs242	36.172917	1	obsgroup
obs243	36.086458	1	obsgroup
obs244	36.072917	1	obsgroup
obs245	35.301042	1	obsgroup
obs246	34.989583	1	obsgroup
obs247	35.328125	1	obsgroup
obs248	35.219792	1	obsgroup
obs249	35.287500	1	obsgroup
obs250	35.626042	1	obsgroup
obs251	35.097917	1	obsgroup
obs252	34.827083	1	obsgroup
obs253	34.827083	1	obsgroup
obs254	34.840625	1	obsgroup
obs255	34.840625	1	obsgroup
obs256	34.800000	1	obsgroup
obs257	34.827083	1	obsgroup
obs258	34.854167	1	obsgroup
obs259	34.854167	1	obsgroup
obs260	34.800000	1	obsgroup
obs261	34.908333	1	obsgroup
obs262	35.003125	1	obsgroup
obs263	34.908333	1	obsgroup
obs264	34.894792	1	obsgroup
obs265	34.827083	1	obsgroup
obs266	34.827083	1	obsgroup
obs267	34.800000	1	obsgroup
obs268	34.800000	1	obsgroup
obs269	34.800000	1	obsgroup
obs270	34.786458	1	obsgroup
obs271	34.800000	1	obsgroup
obs272	34.963542	1	obsgroup
obs273	34.800000	1	obsgroup
obs274	34.800000	1	obsgroup
obs275	34.800000	1	obsgroup
obs276	34.800000	1	obsgroup
obs277	43.783333	1	obsgroup
obs278	394.250000	1	obsgroup
obs279	725.916667	1	obsgroup
obs280	1063.750000	1	obsgroup
obs281	1082.187500	1	obsgroup
obs282	1068.541667	1	obsgroup
obs283	1062.812500	1	obsgroup
obs284	1052.812500	1	obsgroup
obs285	1241.836735	1	obsgroup
obs286	1522.916667	1	obsgroup
obs287	1489.583333	1	obsgroup
obs288	1471.979167	1	obsgroup
obs289	1461.562500	1	obsgroup
obs290	1427.187500	1	obsgroup
obs291	1448.958333	1	obsgroup
obs292	1498.333333	1	obsgroup
obs293	1477.916667	1	obsgroup
obs294	1502.187500	1	obsgroup
obs295	1479.687500	1	obsgroup
obs296	1425.104167	1	obsgroup
obs297	1519.895833	1	obsgroup
obs298	1510.000000	1	obsgroup
obs299	1479.791667	1	obsgroup
obs300	1503.541667	1	obsgroup
obs301	1499.270833	1	obsgroup
obs302	1430.937500	1	obsgroup
obs303	1260.520833	1	obsgroup
obs304	1149.479167	1	obsgroup
obs305	1033.350515	1	obsgroup
obs306	927.500000	1	obsgroup
obs307	872.979167	1	obsgroup
obs308	852.354167	1	obsgroup
obs309	834.489583	1	obsgroup
obs310	794.072917	1	obsgroup
obs311	793.822917	1	obsgroup
obs312	782.843750	1	obsgroup
obs313	763.489583	1	obsgroup
obs314	737.312500	1	obsgroup
obs315	715.562500	1	obsgroup
obs316	687.583333	1	obsgroup
obs317	613.427083	1	obsgroup
obs318	290.864583	1	obsgroup
obs319	160.729897	1	obsgroup
obs320	164.906250	1	obsgroup
obs321	166.281250	1	obsgroup
obs322	450.010417	1	obsgroup
obs323	695.979167	1	obsgroup
obs324	834.635417	1	obsgroup
obs325	922.885417	1	obsgroup
obs326	947.302083	1	obsgroup
obs327	1087.291667	1	obsgroup
obs328	958.239583	1	obsgroup
obs329	781.302083	1	obsgroup
obs330	622.597938	1	obsgroup
obs331	684.312500	1	obsgroup
obs332	954.916667	1	obsgroup
obs333	767.250000	1	obsgroup
obs334	797.895833	1	obsgroup
obs335	1243.750000	1	obsgroup
obs336	1680.312500	1	obsgroup
obs337	1669.583333	1	obsgroup
obs338	1092.970874	1	obsgroup
obs339	611.604167	1	obsgroup
obs340	559.020833	1	obsgroup
obs341	497.354167	1	obsgroup
obs342	538.618557	1	obsgroup
obs343	818.437500	1	obsgroup
obs344	1186.628866	1	obsgroup
obs345	840.583333	1	obsgroup
obs346	816.156250	1	obsgroup
obs347	836.000000	1	obsgroup
obs348	870.031250	1	obsgroup
obs349	0.000000	0	obsgroup
obs350	0.000000	0	obsgroup
obs351	0.000000	0	obsgroup
obs352	0.000000	0	obsgroup
obs353	0.000000	0	obsgroup
obs354	0.000000	0	obsgroup
obs355	0.000000	0	obsgroup
obs356	0.000000	0	obsgroup
obs357	2762.783505	1	obsgroup
obs358	1830.561905	1	obsgroup
obs359	639.364583	1	obsgroup
obs360	606.322917	1	obsgroup
obs361	1052.187500	1	obsgroup
obs362	1260.918367	1	obsgroup
obs363	1362.916667	1	obsgroup
obs364	1964.600000	1	obsgroup
obs365	2449.270833	1	obsgroup
obs366	2370.937500	1	obsgroup
obs367	2110.625000	1	obsgroup
obs368	1643.645833	1	obsgroup
obs369	1402.886598	1	obsgroup
obs370	1297.291667	1	obsgroup
obs371	1017.979592	1	obsgroup
obs372	736.781250	1	obsgroup
obs373	657.062500	1	obsgroup
obs374	521.427083	1	obsgroup
obs375	495.906250	1	obsgroup
obs376	454.166667	1	obsgroup
obs377	409.635417	1	obsgroup
obs378	546.260417	1	obsgroup
obs379	904.000000	1	obsgroup
obs380	911.343750	1	obsgroup
obs381	946.197917	1	obsgroup
obs382	993.177083	1	obsgroup
obs383	1211.875000	1	obsgroup
obs384	1986.701031	1	obsgroup
obs385	1951.145833	1	obsgroup
obs386	1898.645833	1	obsgroup
obs387	1703.229167	1	obsgroup
obs388	1289.635417	1	obsgroup
obs389	774.437500	1	obsgroup
obs390	533.416667	1	obsgroup
obs391	417.916667	1	obsgroup
obs392	419.791667	1	obsgroup
obs393	417.791667	1	obsgroup
obs394	392.229167	1	obsgroup
obs395	173.518182	1	obsgroup
obs396	77.770833	1	obsgroup
obs397	61.836458	1	obsgroup
obs398	66.238542	1	obsgroup
obs399	67.841667	1	obsgroup
obs400	68.000000	1	obsgroup
obs401	69.312500	1	obsgroup
obs402	69.800000	1	obsgroup
obs403	62.233333	1	obsgroup
obs404	57.253125	1	obsgroup
obs405	58.351042	1	obsgroup
obs406	58.900000	1	obsgroup
obs407	58.900000	1	obsgroup
obs408	58.919792	1	obsgroup
obs409	59.537500	1	obsgroup
obs410	60.382292	1	obsgroup
obs411	62.893750	1	obsgroup
obs412	66.796875	1	obsgroup
obs413	69.466667	1	obsgroup
obs414	281.291089	1	obsgroup
obs415	542.666667	1	obsgroup
obs416	535.312500	1	obsgroup
obs417	530.843750	1	obsgroup
obs418	468.145833	1	obsgroup
obs419	403.541667	1	obsgroup
obs420	360.614583	1	obsgroup
obs421	313.583333	1	obsgroup
obs422	304.406250	1	obsgroup
obs423	247.587629	1	obsgroup
obs424	195.854167	1	obsgroup
obs425	1020.875000	1	obsgroup
obs426	1112.083333	1	obsgroup
obs427	1276.767677	1	obsgroup
obs428	1532.395833	1	obsgroup
obs429	1548.229167	1	obsgroup
obs430	1414.270833	1	obsgroup
obs431	928.947917	1	obsgroup
obs432	881.541667	1	obsgroup
obs433	994.458333	1	obsgroup
obs434	1435.416667	1	obsgroup
obs435	1783.645833	1	obsgroup
obs436	1973.020833	1	obsgroup
obs437	1970.869565	1	obsgroup
obs438	1574.895833	1	obsgroup
obs439	1389.479167	1	obsgroup
obs440	1460.208333	1	obsgroup
obs441	1876.145833	1	obsgroup
obs442	1992.291667	1	obsgroup
obs443	1869.062500	1	obsgroup
obs444	1657.187500	1	obsgroup
obs445	1502.708333	1	obsgroup
obs446	1025.888889	1	obsgroup
obs447	421.252525	1	obsgroup
obs448	199.052083	1	obsgroup
obs449	130.750000	1	obsgroup
obs450	130.812500	1	obsgroup
obs451	164.708333	1	obsgroup
obs452	291.666667	1	obsgroup
obs453	357.625000	1	obsgroup
obs454	395.593750	1	obsgroup
obs455	369.104167	1	obsgroup
obs456	338.750000	1	obsgroup
obs457	339.833333	1	obsgroup
obs458	340.250000	1	obsgroup
obs459	341.041667	1	obsgroup
obs460	342.166667	1	obsgroup
obs461	343.125000	1	obsgroup
obs462	343.906250	1	obsgroup
obs463	327.164948	1	obsgroup
obs464	211.802083	1	obsgroup
obs465	123.375000	1	obsgroup
obs466	123.375000	1	obsgroup
obs467	123.125000	1	obsgroup
obs468	123.500000	1	obsgroup
obs469	123.312500	1	obsgroup
obs470	496.276190	1	obsgroup
obs471	1325.208333	1	obsgroup
obs472	1312.812500	1	obsgroup
obs473	1162.237113	1	obsgroup
obs474	516.000000	1	obsgroup
obs475	366.958333	1	obsgroup
obs476	365.583333	1	obsgroup
obs477	362.583333	1	obsgroup
obs478	356.000000	1	obsgroup
obs479	350.791667	1	obsgroup
obs480	641.131313	1	obsgroup
obs481	739.458333	1	obsgroup
obs482	732.895833	1	obsgroup
obs483	645.197917	1	obsgroup
obs484	561.250000	1	obsgroup
obs485	533.937500	1	obsgroup
obs486	498.432990	1	obsgroup
obs487	479.572917	1	obsgroup
obs488	373.412371	1	obsgroup
obs489	252.875000	1	obsgroup
obs490	252.937500	1	obsgroup
obs491	269.224490	1	obsgroup
obs492	435.822917	1	obsgroup
obs493	426.587629	1	obsgroup
obs494	355.835052	1	obsgroup
obs495	296.104167	1	obsgroup
obs496	278.656250	1	obsgroup
obs497	278.593750	1	obsgroup
obs498	271.708333	1	obsgroup
obs499	233.479167	1	obsgroup
obs500	198.281250	1	obsgroup
obs501	192.500000	1	obsgroup
obs502	183.125000	1	obsgroup
obs503	367.939394	1	obsgroup
obs504	360.958333	1	obsgroup
obs505	326.312500	1	obsgroup
obs506	252.257732	1	obsgroup
obs507	175.000000	1	obsgroup
obs508	175.062500	1	obsgroup
obs509	175.125000	1	obsgroup
obs510	178.031250	1	obsgroup
obs511	195.218750	1	obsgroup
obs512	238.750000	1	obsgroup
obs513	370.500000	1	obsgroup
obs514	368.500000	1	obsgroup
obs515	310.618557	1	obsgroup
obs516	265.260417	1	obsgroup
obs517	336.791667	1	obsgroup
obs518	352.791667	1	obsgroup
obs519	359.375000	1	obsgroup
obs520	335.000000	1	obsgroup
obs521	317.770833	1	obsgroup
obs522	228.336735	1	obsgroup
obs523	188.166667	1	obsgroup
obs524	171.968750	1	obsgroup
obs525	168.041667	1	obsgroup
obs526	162.354167	1	obsgroup
obs527	161.979167	1	obsgroup
obs528	152.322917	1	obsgroup
obs529	228.051546	1	obsgroup
obs530	209.927083	1	obsgroup
obs531	181.479167	1	obsgroup
obs532	102.464286	1	obsgroup
obs533	62.560417	1	obsgroup
obs534	57.217708	1	obsgroup
obs535	57.200000	1	obsgroup
obs536	57.200000	1	obsgroup
obs537	57.200000	1	obsgroup
obs538	57.200000	1	obsgroup
obs539	53.473958	1	obsgroup
obs540	52.300000	1	obsgroup
obs541	52.282292	1	obsgroup
obs542	52.300000	1	obsgroup
obs543	52.300000	1	obsgroup
obs544	52.300000	1	obsgroup
obs545	52.300000	1	obsgroup
obs546	52.300000	1	obsgroup
obs547	52.300000	1	obsgroup
obs548	42.181443	1	obsgroup
obs549	38.745833	1	obsgroup
obs550	34.925000	1	obsgroup
obs551	32.300000	1	obsgroup
obs552	32.312500	1	obsgroup
obs553	32.300000	1	obsgroup
obs554	32.350000	1	obsgroup
obs555	32.312500	1	obsgroup
obs556	32.300000	1	obsgroup
obs557	32.300000	1	obsgroup
obs558	32.479167	1	obsgroup
obs559	32.300000	1	obsgroup
obs560	32.300000	1	obsgroup
obs561	32.300000	1	obsgroup
obs562	32.325000	1	obsgroup
obs563	32.437500	1	obsgroup
obs564	32.300000	1	obsgroup
obs565	32.400000	1	obsgroup
obs566	32.700000	1	obsgroup
obs567	32.559794	1	obsgroup
obs568	32.612500	1	obsgroup
obs569	33.087500	1	obsgroup
obs570	33.200000	1	obsgroup
obs571	33.175000	1	obsgroup
obs572	33.425000	1	obsgroup
obs573	33.250000	1	obsgroup
obs574	33.087500	1	obsgroup
obs575	39.583333	1	obsgroup
obs576	56.362500	1	obsgroup
obs577	45.413402	1	obsgroup
obs578	41.177083	1	obsgroup
obs579	43.000000	1	obsgroup
obs580	43.000000	1	obsgroup
obs581	43.000000	1	obsgroup
obs582	43.000000	1	obsgroup
obs583	43.000000	1	obsgroup
obs584	43.000000	1	obsgroup
obs585	43.000000	1	obsgroup
obs586	43.000000	1	obsgroup
obs587	43.000000	1	obsgroup
obs588	39.412500	1	obsgroup
obs589	38.144792	1	obsgroup
obs590	34.780597	1	obsgroup
obs591	34.542708	1	obsgroup
obs592	34.211579	1	obsgroup
obs593	34.556250	1	obsgroup
obs594	37.235052	1	obsgroup
obs595	53.421875	1	obsgroup
obs596	56.476042	1	obsgroup
obs597	55.366667	1	obsgroup
obs598	55.300000	1	obsgroup
obs599	45.432292	1	obsgroup
obs600	44.500000	1	obsgroup
obs601	55.773000	1	obsgroup
obs602	62.706250	1	obsgroup
obs603	62.500000	1	obsgroup
obs604	54.071875	1	obsgroup
obs605	50.537500	1	obsgroup
obs606	50.521875	1	obsgroup
obs607	50.568750	1	obsgroup
obs608	50.475000	1	obsgroup
obs609	50.365625	1	obsgroup
obs610	50.178125	1	obsgroup
obs611	50.303125	1	obsgroup
obs612	50.115625	1	obsgroup
obs613	49.943750	1	obsgroup
obs614	49.115625	1	obsgroup
obs615	58.713402	1	obsgroup
obs616	56.892784	1	obsgroup
obs617	49.131250	1	obsgroup
obs618	49.146875	1	obsgroup
obs619	49.146875	1	obsgroup
obs620	49.100000	1	obsgroup
obs621	49.100000	1	obsgroup
obs622	49.100000	1	obsgroup
obs623	49.797917	1	obsgroup
obs624	53.677083	1	obsgroup
obs625	57.200000	1	obsgroup
obs626	57.200000	1	obsgroup
obs627	57.200000	1	obsgroup
obs628	57.200000	1	obsgroup
obs629	57.200000	1	obsgroup
obs630	57.200000	1	obsgroup
obs631	57.200000	1	obsgroup
obs632	57.200000	1	obsgroup
obs633	57.200000	1	obsgroup
obs634	57.164583	1	obsgroup
obs635	57.200000	1	obsgroup
obs636	240.451429	1	obsgroup
obs637	238.220183	1	obsgroup
obs638	56.907292	1	obsgroup
obs639	78.000000	1	obsgroup
obs640	246.382653	1	obsgroup
obs641	664.364583	1	obsgroup
obs642	1233.716814	1	obsgroup
obs643	1502.708333	1	obsgroup
obs644	1539.583333	1	obsgroup
obs645	1506.041667	1	obsgroup
obs646	1481.979167	1	obsgroup
obs647	1446.354167	1	obsgroup
obs648	1425.625000	1	obsgroup
obs649	1406.041667	1	obsgroup
obs650	1383.750000	1	obsgroup
obs651	1360.208333	1	obsgroup
obs652	1160.104167	1	obsgroup
obs653	1050.833333	1	obsgroup
obs654	1041.354167	1	obsgroup
obs655	1029.062500	1	obsgroup
obs656	1014.218750	1	obsgroup
obs657	1011.041667	1	obsgroup
obs658	999.375000	1	obsgroup
obs659	988.541667	1	obsgroup
obs660	978.072917	1	obsgroup
obs661	968.697917	1	obsgroup
obs662	956.177083	1	obsgroup
obs663	890.645833	1	obsgroup
obs664	745.195876	1	obsgroup
obs665	635.216495	1	obsgroup
obs666	514.114583	1	obsgroup
obs667	455.968750	1	obsgroup
obs668	450.614583	1	obsgroup
obs669	445.125000	1	obsgroup
obs670	424.958763	1	obsgroup
obs671	433.833333	1	obsgroup
obs672	433.833333	1	obsgroup
obs673	426.916667	1	obsgroup
obs674	420.166667	1	obsgroup
obs675	416.708333	1	obsgroup
obs676	465.340206	1	obsgroup
obs677	526.895833	1	obsgroup
obs678	519.239583	1	obsgroup
obs679	561.468750	1	obsgroup
obs680	610.208333	1	obsgroup
obs681	597.885417	1	obsgroup
obs682	592.875000	1	obsgroup
obs683	584.343750	1	obsgroup
obs684	571.770833	1	obsgroup
obs685	494.536082	1	obsgroup
obs686	449.291667	1	obsgroup
obs687	531.731959	1	obsgroup
obs688	255.255102	1	obsgroup
obs689	244.812500	1	obsgroup
obs690	241.937500	1	obsgroup
obs691	493.686869	1	obsgroup
obs692	674.309278	1	obsgroup
obs693	842.783505	1	obsgroup
obs694	608.825243	1	obsgroup
obs695	443.406250	1	obsgroup
obs696	364.958763	1	obsgroup
obs697	304.500000	1	obsgroup
obs698	297.020619	1	obsgroup
obs699	243.322917	1	obsgroup
obs700	224.312500	1	obsgroup
obs701	132.622449	1	obsgroup
obs702	116.208333	1	obsgroup
obs703	116.125000	1	obsgroup
obs704	95.244330	1	obsgroup
obs705	84.928125	1	obsgroup
obs706	84.250000	1	obsgroup
obs707	80.544792	1	obsgroup
obs708	77.700000	1	obsgroup
obs709	77.700000	1	obsgroup
obs710	73.895833	1	obsgroup
obs711	56.539583	1	obsgroup
obs712	50.600000	1	obsgroup
obs713	50.600000	1	obsgroup
obs714	50.617708	1	obsgroup
obs715	50.617708	1	obsgroup
obs716	50.759375	1	obsgroup
obs717	51.343750	1	obsgroup
obs718	51.290625	1	obsgroup
obs719	51.768750	1	obsgroup
obs720	52.300000	1	obsgroup
obs721	52.300000	1	obsgroup
obs722	51.622917	1	obsgroup
obs723	52.300000	1	obsgroup
obs724	52.282292	1	obsgroup
obs725	52.300000	1	obsgroup
obs726	75.139583	1	obsgroup
obs727	120.114583	1	obsgroup
obs728	119.659375	1	obsgroup
obs729	657.128713	1	obsgroup
obs730	2271.029412	1	obsgroup
obs731	3058.865979	1	obsgroup
obs732	3057.916667	1	obsgroup
obs733	3071.237113	1	obsgroup
obs734	2840.102041	1	obsgroup
obs735	2143.775510	1	obsgroup
obs736	1132.230000	1	obsgroup
obs737	541.620000	1	obsgroup
obs738	225.408163	1	obsgroup
obs739	98.242574	1	obsgroup
obs740	48.400000	1	obsgroup
obs741	58.290625	1	obsgroup
obs742	47.851000	1	obsgroup
obs743	44.134021	1	obsgroup
obs744	124.452577	1	obsgroup
obs745	213.816327	1	obsgroup
obs746	254.677083	1	obsgroup
obs747	388.175258	1	obsgroup
obs748	641.550000	1	obsgroup
obs749	53.837864	1	obsgroup
obs750	33.844792	1	obsgroup
obs751	36.213542	1	obsgroup
obs752	2605.224299	1	obsgroup
obs753	3898.712871	1	obsgroup
obs754	3908.235294	1	obsgroup
obs755	2794.270833	1	obsgroup
obs756	3791.546392	1	obsgroup
obs757	4317.319588	1	obsgroup
obs758	4277.083333	1	obsgroup
obs759	4171.086957	1	obsgroup
obs760	4062.604167	1	obsgroup
obs761	3948.645833	1	obsgroup
obs762	3816.041667	1	obsgroup
obs763	3464.949495	1	obsgroup
obs764	3229.791667	1	obsgroup
obs765	3196.530612	1	obsgroup
obs766	3096.734694	1	obsgroup
obs767	2793.333333	1	obsgroup
obs768	1983.020833	1	obsgroup
obs769	1308.865979	1	obsgroup
obs770	844.948454	1	obsgroup
obs771	559.010309	1	obsgroup
obs772	508.552083	1	obsgroup
obs773	508.721649	1	obsgroup
obs774	519.020833	1	obsgroup
obs775	469.281250	1	obsgroup
obs776	0.000000	0	obsgroup
obs777	0.000000	0	obsgroup
obs778	0.000000	0	obsgroup
obs779	0.000000	0	obsgroup
obs780	0.000000	0	obsgroup
obs781	0.000000	0	obsgroup
obs782	0.000000	0	obsgroup
obs783	100.757732	1	obsgroup
obs784	77.735417	1	obsgroup
obs785	52.890625	1	obsgroup
obs786	53.125000	1	obsgroup
obs787	53.200000	1	obsgroup
obs788	53.872917	1	obsgroup
obs789	54.169792	1	obsgroup
obs790	54.684375	1	obsgroup
obs791	1045.769697	1	obsgroup
obs792	1818.229167	1	obsgroup
obs793	2260.104167	1	obsgroup
obs794	2214.687500	1	obsgroup
obs795	1893.505155	1	obsgroup
obs796	1318.437500	1	obsgroup
obs797	841.745283	1	obsgroup
obs798	561.062500	1	obsgroup
obs799	436.875000	1	obsgroup
obs800	404.875000	1	obsgroup
obs801	381.467391	1	obsgroup
obs802	380.906250	1	obsgroup
obs803	414.402062	1	obsgroup
obs804	1317.510204	1	obsgroup
obs805	2090.416667	1	obsgroup
obs806	2105.729167	1	obsgroup
obs807	2417.040816	1	obsgroup
obs808	2531.666667	1	obsgroup
obs809	2516.770833	1	obsgroup
obs810	2603.750000	1	obsgroup
obs811	2741.875000	1	obsgroup
obs812	2746.770833	1	obsgroup
obs813	2738.750000	1	obsgroup
obs814	2730.104167	1	obsgroup
obs815	2718.333333	1	obsgroup
obs816	2565.816327	1	obsgroup
obs817	2469.270833	1	obsgroup
obs818	2871.562500	1	obsgroup
obs819	3300.636364	1	obsgroup
obs820	1443.544554	1	obsgroup
obs821	1563.212121	1	obsgroup
obs822	3266.465517	1	obsgroup
obs823	3223.333333	1	obsgroup
obs824	3238.437500	1	obsgroup
obs825	3225.104167	1	obsgroup
obs826	3141.250000	1	obsgroup
obs827	2523.092784	1	obsgroup
obs828	1864.479167	1	obsgroup
obs829	1499.381443	1	obsgroup
obs830	1058.101010	1	obsgroup
obs831	831.739583	1	obsgroup
obs832	987.210000	1	obsgroup
obs833	1572.777778	1	obsgroup
obs834	1497.291667	1	obsgroup
obs835	976.803922	1	obsgroup
obs836	697.916667	1	obsgroup
obs837	849.494845	1	obsgroup
obs838	934.625000	1	obsgroup
obs839	930.562500	1	obsgroup
obs840	810.804124	1	obsgroup
obs841	862.319588	1	obsgroup
obs842	779.666667	1	obsgroup
obs843	753.343750	1	obsgroup
obs844	622.822917	1	obsgroup
obs845	546.937500	1	obsgroup
obs846	483.322917	1	obsgroup
obs847	500.062500	1	obsgroup
obs848	502.916667	1	obsgroup
obs849	327.234694	1	obsgroup
obs850	250.218750	1	obsgroup
obs851	480.180000	1	obsgroup
obs852	421.173469	1	obsgroup
obs853	420.947917	1	obsgroup
obs854	709.091837	1	obsgroup
obs855	807.000000	1	obsgroup
obs856	557.854167	1	obsgroup
obs857	346.229167	1	obsgroup
obs858	285.322917	1	obsgroup
obs859	280.625000	1	obsgroup
obs860	275.541667	1	obsgroup
obs861	232.938776	1	obsgroup
obs862	202.125000	1	obsgroup
obs863	193.562500	1	obsgroup
obs864	193.406250	1	obsgroup
obs865	197.123711	1	obsgroup
obs866	215.406250	1	obsgroup
obs867	182.091837	1	obsgroup
obs868	76.470833	1	obsgroup
obs869	51.967708	1	obsgroup
obs870	78.262500	1	obsgroup
obs871	120.811881	1	obsgroup
obs872	284.770000	1	obsgroup
obs873	454.906250	1	obsgroup
obs874	403.000000	1	obsgroup
obs875	272.010309	1	obsgroup
obs876	287.218750	1	obsgroup
obs877	306.906250	1	obsgroup
obs878	223.134021	1	obsgroup
obs879	115.900000	1	obsgroup
obs880	83.616667	1	obsgroup
obs881	83.800000	1	obsgroup
obs882	83.800000	1	obsgroup
obs883	83.800000	1	obsgroup
obs884	136.707292	1	obsgroup
obs885	153.000000	1	obsgroup
obs886	355.561224	1	obsgroup
obs887	533.572917	1	obsgroup
obs888	330.583333	1	obsgroup
obs889	308.927835	1	obsgroup
obs890	74.327723	1	obsgroup
obs891	42.833333	1	obsgroup
obs892	42.721649	1	obsgroup
obs893	53.200000	1	obsgroup
obs894	61.045833	1	obsgroup
obs895	53.200000	1	obsgroup
obs896	53.200000	1	obsgroup
obs897	53.200000	1	obsgroup
obs898	53.200000	1	obsgroup
obs899	53.200000	1	obsgroup
obs900	53.200000	1	obsgroup
obs901	53.200000	1	obsgroup
obs902	53.200000	1	obsgroup
obs903	53.219792	1	obsgroup
obs904	53.219792	1	obsgroup
obs905	53.200000	1	obsgroup
obs906	53.200000	1	obsgroup
obs907	53.200000	1	obsgroup
obs908	116.104082	1	obsgroup
obs909	140.312500	1	obsgroup
obs910	107.192708	1	obsgroup
obs911	83.800000	1	obsgroup
obs912	83.800000	1	obsgroup
obs913	83.822917	1	obsgroup
obs914	83.800000	1	obsgroup
obs915	83.800000	1	obsgroup
obs916	64.180208	1	obsgroup
obs917	52.096907	1	obsgroup
obs918	47.478125	1	obsgroup
obs919	44.600000	1	obsgroup
obs920	44.600000	1	obsgroup
obs921	44.600000	1	obsgroup
obs922	44.600000	1	obsgroup
obs923	44.600000	1	obsgroup
obs924	44.600000	1	obsgroup
obs925	44.600000	1	obsgroup
obs926	44.600000	1	obsgroup
obs927	44.600000	1	obsgroup
obs928	44.600000	1	obsgroup
obs929	44.116667	1	obsgroup
obs930	43.216667	1	obsgroup
obs931	43.100000	1	obsgroup
obs932	43.016667	1	obsgroup
obs933	43.000000	1	obsgroup
obs934	43.000000	1	obsgroup
obs935	43.116667	1	obsgroup
obs936	43.050000	1	obsgroup
obs937	49.053125	1	obsgroup
obs938	49.700000	1	obsgroup
obs939	49.700000	1	obsgroup
obs940	49.700000	1	obsgroup
obs941	49.700000	1	obsgroup
obs942	49.700000	1	obsgroup
obs943	49.700000	1	obsgroup
obs944	49.700000	1	obsgroup
obs945	49.700000	1	obsgroup
obs946	49.700000	1	obsgroup
obs947	49.700000	1	obsgroup
obs948	49.700000	1	obsgroup
obs949	49.700000	1	obsgroup
obs950	49.700000	1	obsgroup
obs951	69.900000	1	obsgroup
obs952	94.505208	1	obsgroup
obs953	68.518750	1	obsgroup