pcf
* control data
restart  estimation
    8  3287     8     0     1
    1     1 single point   1   0   0
  5.0   2.0   0.3  0.03    10  999  lamforgive  derforgive
  3.0   3.0 0.001  0
  0.1
   30  0.01     3     3  0.01     3
    1     1     1     1
* parameter groups
fc           relative 0.01  0.0  switch  2.0 parabolic
beta         relative 0.01  0.0  switch  2.0 parabolic
perc         relative 0.01  0.0  switch  2.0 parabolic
uzl          relative 0.01  0.0  switch  2.0 parabolic
k0           relative 0.01  0.0  switch  2.0 parabolic
k1           relative 0.01  0.0  switch  2.0 parabolic
k2           relative 0.01  0.0  switch  2.0 parabolic
et_mult      relative 0.01  0.0  switch  2.0 parabolic
* parameter data
fc           none relative   536.06       50.000000  600.000000      fc              1.0000        0.0000      1
beta         none relative   4.828        1.000000    6.000000       beta            1.0000        0.0000      1
perc         none relative   0.2          0.000100    0.500000       perc            1.0000        0.0000      1
uzl          none relative   30.85        0.100000   75.000000       uzl             1.0000        0.0000      1
k0           none relative   0.274        0.050000    0.700000       k0              1.0000        0.0000      1
k1           none relative   0.151        0.010000    0.400000       k1              1.0000        0.0000      1
k2           none relative   0.0006	  0.000100    0.150000       k2              1.0000        0.0000      1
et_mult      none relative   1            0.100000    10.00000       et_mult         1.0000        0.0000      1
* observation groups
obsgroup
* observation data
obs1	4433.020833	1	obsgroup
obs2	4994.479167	1	obsgroup
obs3	3760.625000	1	obsgroup
obs4	2355.104167	1	obsgroup
obs5	2204.270833	1	obsgroup
obs6	3048.958333	1	obsgroup
obs7	3010.416667	1	obsgroup
obs8	2299.375000	1	obsgroup
obs9	2381.041667	1	obsgroup
obs10	1974.583333	1	obsgroup
obs11	1620.833333	1	obsgroup
obs12	1700.208333	1	obsgroup
obs13	2136.145833	1	obsgroup
obs14	2503.958333	1	obsgroup
obs15	2146.562500	1	obsgroup
obs16	2996.250000	1	obsgroup
obs17	2849.062500	1	obsgroup
obs18	3023.229167	1	obsgroup
obs19	2664.687500	1	obsgroup
obs20	2056.354167	1	obsgroup
obs21	1658.541667	1	obsgroup
obs22	1364.375000	1	obsgroup
obs23	1151.770833	1	obsgroup
obs24	1063.958333	1	obsgroup
obs25	1638.750000	1	obsgroup
obs26	1413.750000	1	obsgroup
obs27	1191.354167	1	obsgroup
obs28	1054.791667	1	obsgroup
obs29	952.687500	1	obsgroup
obs30	875.104167	1	obsgroup
obs31	835.791667	1	obsgroup
obs32	802.072917	1	obsgroup
obs33	1060.531250	1	obsgroup
obs34	1035.770833	1	obsgroup
obs35	1044.062500	1	obsgroup
obs36	1081.145833	1	obsgroup
obs37	999.010417	1	obsgroup
obs38	957.208333	1	obsgroup
obs39	871.843750	1	obsgroup
obs40	805.010417	1	obsgroup
obs41	750.270833	1	obsgroup
obs42	876.572917	1	obsgroup
obs43	1227.239583	1	obsgroup
obs44	1481.979167	1	obsgroup
obs45	1361.666667	1	obsgroup
obs46	1223.750000	1	obsgroup
obs47	1150.416667	1	obsgroup
obs48	1055.458333	1	obsgroup
obs49	946.937500	1	obsgroup
obs50	860.333333	1	obsgroup
obs51	783.760417	1	obsgroup
obs52	716.510417	1	obsgroup
obs53	658.333333	1	obsgroup
obs54	633.020833	1	obsgroup
obs55	1048.020833	1	obsgroup
obs56	1122.500000	1	obsgroup
obs57	1358.541667	1	obsgroup
obs58	1969.375000	1	obsgroup
obs59	1639.270833	1	obsgroup
obs60	1330.937500	1	obsgroup
obs61	1135.416667	1	obsgroup
obs62	1000.541667	1	obsgroup
obs63	898.447917	1	obsgroup
obs64	803.552083	1	obsgroup
obs65	729.885417	1	obsgroup
obs66	672.541667	1	obsgroup
obs67	623.197917	1	obsgroup
obs68	571.062500	1	obsgroup
obs69	554.145833	1	obsgroup
obs70	542.156250	1	obsgroup
obs71	1421.833333	1	obsgroup
obs72	1873.750000	1	obsgroup
obs73	1418.260870	1	obsgroup
obs74	1155.729167	1	obsgroup
obs75	993.010417	1	obsgroup
obs76	877.520833	1	obsgroup
obs77	786.302083	1	obsgroup
obs78	714.218750	1	obsgroup
obs79	654.708333	1	obsgroup
obs80	611.781250	1	obsgroup
obs81	618.479167	1	obsgroup
obs82	578.187500	1	obsgroup
obs83	532.531250	1	obsgroup
obs84	554.572917	1	obsgroup
obs85	1347.812500	1	obsgroup
obs86	1498.125000	1	obsgroup
obs87	1202.395833	1	obsgroup
obs88	1909.375000	1	obsgroup
obs89	3624.479167	1	obsgroup
obs90	3660.520833	1	obsgroup
obs91	2593.645833	1	obsgroup
obs92	2145.104167	1	obsgroup
obs93	2709.687500	1	obsgroup
obs94	2554.791667	1	obsgroup
obs95	2111.562500	1	obsgroup
obs96	2416.979167	1	obsgroup
obs97	2377.083333	1	obsgroup
obs98	2026.145833	1	obsgroup
obs99	1721.145833	1	obsgroup
obs100	1453.020833	1	obsgroup
obs101	1306.250000	1	obsgroup
obs102	1278.645833	1	obsgroup
obs103	0.000000	0	obsgroup
obs104	1068.541667	1	obsgroup
obs105	1023.875000	1	obsgroup
obs106	926.437500	1	obsgroup
obs107	838.135417	1	obsgroup
obs108	773.541667	1	obsgroup
obs109	716.781250	1	obsgroup
obs110	684.927083	1	obsgroup
obs111	642.145833	1	obsgroup
obs112	586.281250	1	obsgroup
obs113	545.843750	1	obsgroup
obs114	516.593750	1	obsgroup
obs115	497.031250	1	obsgroup
obs116	468.510417	1	obsgroup
obs117	881.770833	1	obsgroup
obs118	1075.208333	1	obsgroup
obs119	1067.708333	1	obsgroup
obs120	959.072917	1	obsgroup
obs121	854.583333	1	obsgroup
obs122	764.156250	1	obsgroup
obs123	741.718750	1	obsgroup
obs124	746.062500	1	obsgroup
obs125	675.010417	1	obsgroup
obs126	620.739583	1	obsgroup
obs127	576.770833	1	obsgroup
obs128	538.416667	1	obsgroup
obs129	512.416667	1	obsgroup
obs130	484.510417	1	obsgroup
obs131	463.500000	1	obsgroup
obs132	430.156250	1	obsgroup
obs133	408.354167	1	obsgroup
obs134	385.958333	1	obsgroup
obs135	363.218750	1	obsgroup
obs136	345.968750	1	obsgroup
obs137	331.593750	1	obsgroup
obs138	324.354167	1	obsgroup
obs139	316.708333	1	obsgroup
obs140	352.322917	1	obsgroup
obs141	389.062500	1	obsgroup
obs142	431.572917	1	obsgroup
obs143	384.583333	1	obsgroup
obs144	355.791667	1	obsgroup
obs145	340.156250	1	obsgroup
obs146	380.479167	1	obsgroup
obs147	391.072917	1	obsgroup
obs148	361.510417	1	obsgroup
obs149	337.645833	1	obsgroup
obs150	321.770833	1	obsgroup
obs151	321.750000	1	obsgroup
obs152	322.479167	1	obsgroup
obs153	474.020833	1	obsgroup
obs154	1172.812500	1	obsgroup
obs155	1413.020833	1	obsgroup
obs156	1527.812500	1	obsgroup
obs157	1142.708333	1	obsgroup
obs158	964.604167	1	obsgroup
obs159	802.437500	1	obsgroup
obs160	720.250000	1	obsgroup
obs161	801.760417	1	obsgroup
obs162	704.864583	1	obsgroup
obs163	631.510417	1	obsgroup
obs164	567.416667	1	obsgroup
obs165	511.427083	1	obsgroup
obs166	472.520833	1	obsgroup
obs167	443.697917	1	obsgroup
obs168	417.729167	1	obsgroup
obs169	398.718750	1	obsgroup
obs170	372.604167	1	obsgroup
obs171	357.218750	1	obsgroup
obs172	340.822917	1	obsgroup
obs173	321.708333	1	obsgroup
obs174	303.031250	1	obsgroup
obs175	284.468750	1	obsgroup
obs176	268.239583	1	obsgroup
obs177	256.927083	1	obsgroup
obs178	247.635417	1	obsgroup
obs179	234.687500	1	obsgroup
obs180	224.718750	1	obsgroup
obs181	218.510417	1	obsgroup
obs182	208.854167	1	obsgroup
obs183	209.677083	1	obsgroup
obs184	213.218750	1	obsgroup
obs185	199.562500	1	obsgroup
obs186	190.437500	1	obsgroup
obs187	183.041667	1	obsgroup
obs188	172.677083	1	obsgroup
obs189	161.687500	1	obsgroup
obs190	153.093750	1	obsgroup
obs191	147.281250	1	obsgroup
obs192	143.208333	1	obsgroup
obs193	138.062500	1	obsgroup
obs194	135.114583	1	obsgroup
obs195	131.093750	1	obsgroup
obs196	125.385417	1	obsgroup
obs197	120.072917	1	obsgroup
obs198	118.093750	1	obsgroup
obs199	116.072917	1	obsgroup
obs200	115.593750	1	obsgroup
obs201	114.197917	1	obsgroup
obs202	109.708333	1	obsgroup
obs203	103.854167	1	obsgroup
obs204	98.436458	1	obsgroup
obs205	96.914583	1	obsgroup
obs206	96.023958	1	obsgroup
obs207	90.997917	1	obsgroup
obs208	86.970833	1	obsgroup
obs209	84.138542	1	obsgroup
obs210	86.057292	1	obsgroup
obs211	85.696875	1	obsgroup
obs212	82.221875	1	obsgroup
obs213	83.169792	1	obsgroup
obs214	83.970833	1	obsgroup
obs215	78.411458	1	obsgroup
obs216	76.340625	1	obsgroup
obs217	74.998958	1	obsgroup
obs218	73.680208	1	obsgroup
obs219	70.534375	1	obsgroup
obs220	71.573958	1	obsgroup
obs221	72.155208	1	obsgroup
obs222	70.183333	1	obsgroup
obs223	71.601042	1	obsgroup
obs224	70.766667	1	obsgroup
obs225	64.541667	1	obsgroup
obs226	63.169792	1	obsgroup
obs227	58.226042	1	obsgroup
obs228	56.916667	1	obsgroup
obs229	56.160417	1	obsgroup
obs230	54.837500	1	obsgroup
obs231	54.112500	1	obsgroup
obs232	54.150000	1	obsgroup
obs233	52.781250	1	obsgroup
obs234	52.293750	1	obsgroup
obs235	53.100000	1	obsgroup
obs236	50.356250	1	obsgroup
obs237	48.059375	1	obsgroup
obs238	45.738542	1	obsgroup
obs239	45.036458	1	obsgroup
obs240	43.965625	1	obsgroup
obs241	45.556250	1	obsgroup
obs242	48.655208	1	obsgroup
obs243	60.392708	1	obsgroup
obs244	60.433333	1	obsgroup
obs245	79.166667	1	obsgroup
obs246	63.113542	1	obsgroup
obs247	53.262500	1	obsgroup
obs248	50.800000	1	obsgroup
obs249	50.375000	1	obsgroup
obs250	47.756250	1	obsgroup
obs251	50.675000	1	obsgroup
obs252	54.581250	1	obsgroup
obs253	52.531250	1	obsgroup
obs254	50.475000	1	obsgroup
obs255	49.225000	1	obsgroup
obs256	49.231250	1	obsgroup
obs257	45.065625	1	obsgroup
obs258	44.605208	1	obsgroup
obs259	52.892708	1	obsgroup
obs260	76.048958	1	obsgroup
obs261	68.135417	1	obsgroup
obs262	98.433333	1	obsgroup
obs263	138.479167	1	obsgroup
obs264	173.687500	1	obsgroup
obs265	104.648958	1	obsgroup
obs266	84.751042	1	obsgroup
obs267	77.047917	1	obsgroup
obs268	74.818750	1	obsgroup
obs269	70.411458	1	obsgroup
obs270	74.553125	1	obsgroup
obs271	77.765625	1	obsgroup
obs272	69.990625	1	obsgroup
obs273	66.221875	1	obsgroup
obs274	62.452083	1	obsgroup
obs275	60.294792	1	obsgroup
obs276	59.827083	1	obsgroup
obs277	60.014583	1	obsgroup
obs278	58.926042	1	obsgroup
obs279	57.594792	1	obsgroup
obs280	56.144792	1	obsgroup
obs281	54.937500	1	obsgroup
obs282	61.819792	1	obsgroup
obs283	146.601042	1	obsgroup
obs284	183.572917	1	obsgroup
obs285	129.947917	1	obsgroup
obs286	103.289583	1	obsgroup
obs287	90.804167	1	obsgroup
obs288	81.879167	1	obsgroup
obs289	76.107292	1	obsgroup
obs290	72.509375	1	obsgroup
obs291	69.955208	1	obsgroup
obs292	68.286458	1	obsgroup
obs293	66.553125	1	obsgroup
obs294	64.628125	1	obsgroup
obs295	63.922917	1	obsgroup
obs296	66.291667	1	obsgroup
obs297	185.637500	1	obsgroup
obs298	528.604167	1	obsgroup
obs299	601.895833	1	obsgroup
obs300	515.156250	1	obsgroup
obs301	388.125000	1	obsgroup
obs302	373.697917	1	obsgroup
obs303	308.614583	1	obsgroup
obs304	378.916667	1	obsgroup
obs305	443.229167	1	obsgroup
obs306	963.520833	1	obsgroup
obs307	810.041667	1	obsgroup
obs308	549.395833	1	obsgroup
obs309	425.500000	1	obsgroup
obs310	356.291667	1	obsgroup
obs311	488.135417	1	obsgroup
obs312	538.927083	1	obsgroup
obs313	520.625000	1	obsgroup
obs314	1051.583333	1	obsgroup
obs315	1025.093750	1	obsgroup
obs316	773.312500	1	obsgroup
obs317	620.416667	1	obsgroup
obs318	540.750000	1	obsgroup
obs319	473.656250	1	obsgroup
obs320	445.416667	1	obsgroup
obs321	449.093750	1	obsgroup
obs322	1421.458333	1	obsgroup
obs323	1756.875000	1	obsgroup
obs324	1528.854167	1	obsgroup
obs325	1306.250000	1	obsgroup
obs326	1155.416667	1	obsgroup
obs327	1533.437500	1	obsgroup
obs328	1249.166667	1	obsgroup
obs329	1013.510417	1	obsgroup
obs330	903.447917	1	obsgroup
obs331	1109.062500	1	obsgroup
obs332	1033.833333	1	obsgroup
obs333	905.822917	1	obsgroup
obs334	1098.791667	1	obsgroup
obs335	3427.500000	1	obsgroup
obs336	3088.229167	1	obsgroup
obs337	2017.291667	1	obsgroup
obs338	1511.145833	1	obsgroup
obs339	1220.625000	1	obsgroup
obs340	1031.645833	1	obsgroup
obs341	903.250000	1	obsgroup
obs342	1013.135417	1	obsgroup
obs343	1484.062500	1	obsgroup
obs344	3181.562500	1	obsgroup
obs345	3183.541667	1	obsgroup
obs346	4662.291667	1	obsgroup
obs347	5003.854167	1	obsgroup
obs348	5469.687500	1	obsgroup
obs349	5463.437500	1	obsgroup
obs350	4290.104167	1	obsgroup
obs351	2981.145833	1	obsgroup
obs352	2363.229167	1	obsgroup
obs353	2200.833333	1	obsgroup
obs354	2091.041667	1	obsgroup
obs355	2122.604167	1	obsgroup
obs356	1796.250000	1	obsgroup
obs357	1520.312500	1	obsgroup
obs358	1311.041667	1	obsgroup
obs359	1235.416667	1	obsgroup
obs360	1298.541667	1	obsgroup
obs361	1855.520833	1	obsgroup
obs362	4330.625000	1	obsgroup
obs363	7740.625000	1	obsgroup
obs364	6800.625000	1	obsgroup
obs365	4295.000000	1	obsgroup
obs366	2519.062500	1	obsgroup
obs367	1850.625000	1	obsgroup
obs368	1499.895833	1	obsgroup
obs369	1254.687500	1	obsgroup
obs370	1090.520833	1	obsgroup
obs371	983.708333	1	obsgroup
obs372	876.447917	1	obsgroup
obs373	811.427083	1	obsgroup
obs374	744.802083	1	obsgroup
obs375	693.281250	1	obsgroup
obs376	640.010417	1	obsgroup
obs377	856.281250	1	obsgroup
obs378	2406.562500	1	obsgroup
obs379	3164.687500	1	obsgroup
obs380	2763.541667	1	obsgroup
obs381	4836.458333	1	obsgroup
obs382	9133.125000	1	obsgroup
obs383	6802.187500	1	obsgroup
obs384	4769.479167	1	obsgroup
obs385	3133.333333	1	obsgroup
obs386	2295.729167	1	obsgroup
obs387	1868.333333	1	obsgroup
obs388	1542.604167	1	obsgroup
obs389	1316.458333	1	obsgroup
obs390	1139.062500	1	obsgroup
obs391	1003.531250	1	obsgroup
obs392	897.385417	1	obsgroup
obs393	811.968750	1	obsgroup
obs394	779.302083	1	obsgroup
obs395	708.354167	1	obsgroup
obs396	645.156250	1	obsgroup
obs397	601.020833	1	obsgroup
obs398	562.739583	1	obsgroup
obs399	531.572917	1	obsgroup
obs400	504.635417	1	obsgroup
obs401	484.343750	1	obsgroup
obs402	462.270833	1	obsgroup
obs403	451.729167	1	obsgroup
obs404	455.927083	1	obsgroup
obs405	433.375000	1	obsgroup
obs406	411.375000	1	obsgroup
obs407	396.489583	1	obsgroup
obs408	382.489583	1	obsgroup
obs409	494.739583	1	obsgroup
obs410	532.093750	1	obsgroup
obs411	1123.458333	1	obsgroup
obs412	1563.541667	1	obsgroup
obs413	1352.500000	1	obsgroup
obs414	1126.041667	1	obsgroup
obs415	1022.187500	1	obsgroup
obs416	876.947917	1	obsgroup
obs417	791.854167	1	obsgroup
obs418	742.739583	1	obsgroup
obs419	783.197917	1	obsgroup
obs420	924.802083	1	obsgroup
obs421	852.500000	1	obsgroup
obs422	742.447917	1	obsgroup
obs423	695.197917	1	obsgroup
obs424	1212.520833	1	obsgroup
obs425	3413.125000	1	obsgroup
obs426	4556.041667	1	obsgroup
obs427	3381.354167	1	obsgroup
obs428	2551.250000	1	obsgroup
obs429	2631.250000	1	obsgroup
obs430	2240.208333	1	obsgroup
obs431	1784.375000	1	obsgroup
obs432	1534.479167	1	obsgroup
obs433	1524.375000	1	obsgroup
obs434	2450.625000	1	obsgroup
obs435	2614.270833	1	obsgroup
obs436	1929.895833	1	obsgroup
obs437	1717.391304	1	obsgroup
obs438	2349.895833	1	obsgroup
obs439	2536.562500	1	obsgroup
obs440	3555.104167	1	obsgroup
obs441	4310.833333	1	obsgroup
obs442	3428.020833	1	obsgroup
obs443	2509.583333	1	obsgroup
obs444	1946.250000	1	obsgroup
obs445	1650.937500	1	obsgroup
obs446	1393.020833	1	obsgroup
obs447	1208.452381	1	obsgroup
obs448	1123.333333	1	obsgroup
obs449	1071.428571	1	obsgroup
obs450	1079.411765	1	obsgroup
obs451	1170.574713	1	obsgroup
obs452	1689.880952	1	obsgroup
obs453	1647.738095	1	obsgroup
obs454	2345.955056	1	obsgroup
obs455	2486.702128	1	obsgroup
obs456	2054.823529	1	obsgroup
obs457	1682.261905	1	obsgroup
obs458	1401.904762	1	obsgroup
obs459	1196.458333	1	obsgroup
obs460	1287.604167	1	obsgroup
obs461	1260.312500	1	obsgroup
obs462	1314.062500	1	obsgroup
obs463	1175.937500	1	obsgroup
obs464	1040.760417	1	obsgroup
obs465	935.177083	1	obsgroup
obs466	949.145833	1	obsgroup
obs467	908.968750	1	obsgroup
obs468	823.072917	1	obsgroup
obs469	931.677083	1	obsgroup
obs470	1673.333333	1	obsgroup
obs471	2964.583333	1	obsgroup
obs472	2519.062500	1	obsgroup
obs473	1925.000000	1	obsgroup
obs474	1574.687500	1	obsgroup
obs475	1347.395833	1	obsgroup
obs476	1174.895833	1	obsgroup
obs477	1045.979167	1	obsgroup
obs478	946.833333	1	obsgroup
obs479	891.083333	1	obsgroup
obs480	1284.395833	1	obsgroup
obs481	1740.625000	1	obsgroup
obs482	1682.812500	1	obsgroup
obs483	1519.166667	1	obsgroup
obs484	1499.270833	1	obsgroup
obs485	0.000000	0	obsgroup
obs486	1270.989011	1	obsgroup
obs487	1147.604167	1	obsgroup
obs488	1036.166667	1	obsgroup
obs489	939.625000	1	obsgroup
obs490	862.000000	1	obsgroup
obs491	799.552083	1	obsgroup
obs492	781.145833	1	obsgroup
obs493	751.802083	1	obsgroup
obs494	698.531250	1	obsgroup
obs495	640.010417	1	obsgroup
obs496	600.822917	1	obsgroup
obs497	598.197917	1	obsgroup
obs498	549.406250	1	obsgroup
obs499	518.791667	1	obsgroup
obs500	496.156250	1	obsgroup
obs501	480.375000	1	obsgroup
obs502	467.156250	1	obsgroup
obs503	448.416667	1	obsgroup
obs504	420.958333	1	obsgroup
obs505	397.864583	1	obsgroup
obs506	380.229167	1	obsgroup
obs507	366.375000	1	obsgroup
obs508	355.229167	1	obsgroup
obs509	354.468750	1	obsgroup
obs510	363.375000	1	obsgroup
obs511	397.906250	1	obsgroup
obs512	434.135417	1	obsgroup
obs513	516.739583	1	obsgroup
obs514	499.395833	1	obsgroup
obs515	448.500000	1	obsgroup
obs516	485.187500	1	obsgroup
obs517	510.614583	1	obsgroup
obs518	475.697917	1	obsgroup
obs519	453.958333	1	obsgroup
obs520	412.635417	1	obsgroup
obs521	396.614583	1	obsgroup
obs522	384.864583	1	obsgroup
obs523	356.041667	1	obsgroup
obs524	346.583333	1	obsgroup
obs525	341.989583	1	obsgroup
obs526	0.000000	0	obsgroup
obs527	0.000000	0	obsgroup
obs528	0.000000	0	obsgroup
obs529	0.000000	0	obsgroup
obs530	284.200000	1	obsgroup
obs531	261.812500	1	obsgroup
obs532	248.031250	1	obsgroup
obs533	237.489583	1	obsgroup
obs534	227.885417	1	obsgroup
obs535	225.697917	1	obsgroup
obs536	217.104167	1	obsgroup
obs537	210.208333	1	obsgroup
obs538	193.572917	1	obsgroup
obs539	186.437500	1	obsgroup
obs540	181.135417	1	obsgroup
obs541	177.520833	1	obsgroup
obs542	172.875000	1	obsgroup
obs543	168.666667	1	obsgroup
obs544	172.843750	1	obsgroup
obs545	171.958333	1	obsgroup
obs546	165.781250	1	obsgroup
obs547	163.822917	1	obsgroup
obs548	152.239583	1	obsgroup
obs549	146.541667	1	obsgroup
obs550	144.020833	1	obsgroup
obs551	137.572917	1	obsgroup
obs552	126.937500	1	obsgroup
obs553	122.697917	1	obsgroup
obs554	119.322917	1	obsgroup
obs555	114.583333	1	obsgroup
obs556	113.750000	1	obsgroup
obs557	111.697917	1	obsgroup
obs558	110.333333	1	obsgroup
obs559	117.406250	1	obsgroup
obs560	116.375000	1	obsgroup
obs561	110.239583	1	obsgroup
obs562	114.281250	1	obsgroup
obs563	134.156250	1	obsgroup
obs564	138.979167	1	obsgroup
obs565	133.239583	1	obsgroup
obs566	118.343750	1	obsgroup
obs567	109.104167	1	obsgroup
obs568	102.772917	1	obsgroup
obs569	97.461458	1	obsgroup
obs570	95.040625	1	obsgroup
obs571	91.331250	1	obsgroup
obs572	86.977083	1	obsgroup
obs573	86.954167	1	obsgroup
obs574	83.348958	1	obsgroup
obs575	80.321875	1	obsgroup
obs576	78.396875	1	obsgroup
obs577	75.968750	1	obsgroup
obs578	72.840625	1	obsgroup
obs579	68.732292	1	obsgroup
obs580	67.040625	1	obsgroup
obs581	65.805208	1	obsgroup
obs582	65.137500	1	obsgroup
obs583	64.221875	1	obsgroup
obs584	64.218750	1	obsgroup
obs585	63.197917	1	obsgroup
obs586	63.859375	1	obsgroup
obs587	62.552083	1	obsgroup
obs588	59.143750	1	obsgroup
obs589	57.444792	1	obsgroup
obs590	54.881250	1	obsgroup
obs591	55.781250	1	obsgroup
obs592	58.833333	1	obsgroup
obs593	55.803125	1	obsgroup
obs594	53.762500	1	obsgroup
obs595	49.837500	1	obsgroup
obs596	49.618750	1	obsgroup
obs597	49.200000	1	obsgroup
obs598	48.268750	1	obsgroup
obs599	47.351042	1	obsgroup
obs600	47.556250	1	obsgroup
obs601	46.626042	1	obsgroup
obs602	44.567708	1	obsgroup
obs603	44.410417	1	obsgroup
obs604	43.459375	1	obsgroup
obs605	42.363542	1	obsgroup
obs606	42.454167	1	obsgroup
obs607	41.610417	1	obsgroup
obs608	41.252083	1	obsgroup
obs609	40.865625	1	obsgroup
obs610	39.508333	1	obsgroup
obs611	39.405208	1	obsgroup
obs612	39.192708	1	obsgroup
obs613	37.890625	1	obsgroup
obs614	35.130208	1	obsgroup
obs615	33.570833	1	obsgroup
obs616	33.282292	1	obsgroup
obs617	31.995833	1	obsgroup
obs618	33.156250	1	obsgroup
obs619	32.367708	1	obsgroup
obs620	30.059375	1	obsgroup
obs621	29.978125	1	obsgroup
obs622	31.901042	1	obsgroup
obs623	36.832292	1	obsgroup
obs624	37.834375	1	obsgroup
obs625	36.670833	1	obsgroup
obs626	36.386458	1	obsgroup
obs627	38.037500	1	obsgroup
obs628	33.344792	1	obsgroup
obs629	33.643750	1	obsgroup
obs630	34.210417	1	obsgroup
obs631	32.056250	1	obsgroup
obs632	32.293750	1	obsgroup
obs633	33.162500	1	obsgroup
obs634	36.438542	1	obsgroup
obs635	38.197917	1	obsgroup
obs636	40.879167	1	obsgroup
obs637	43.016667	1	obsgroup
obs638	38.487500	1	obsgroup
obs639	37.880208	1	obsgroup
obs640	40.393750	1	obsgroup
obs641	53.508333	1	obsgroup
obs642	66.832292	1	obsgroup
obs643	70.676042	1	obsgroup
obs644	82.581250	1	obsgroup
obs645	66.510417	1	obsgroup
obs646	57.279167	1	obsgroup
obs647	57.241667	1	obsgroup
obs648	58.270833	1	obsgroup
obs649	86.381250	1	obsgroup
obs650	166.208333	1	obsgroup
obs651	124.593750	1	obsgroup
obs652	90.534375	1	obsgroup
obs653	78.017708	1	obsgroup
obs654	71.461458	1	obsgroup
obs655	65.604167	1	obsgroup
obs656	61.740625	1	obsgroup
obs657	58.216667	1	obsgroup
obs658	56.363542	1	obsgroup
obs659	56.397917	1	obsgroup
obs660	55.807292	1	obsgroup
obs661	55.919792	1	obsgroup
obs662	56.968750	1	obsgroup
obs663	54.525000	1	obsgroup
obs664	52.262500	1	obsgroup
obs665	51.743750	1	obsgroup
obs666	51.800000	1	obsgroup
obs667	56.135417	1	obsgroup
obs668	85.740625	1	obsgroup
obs669	86.614583	1	obsgroup
obs670	99.200000	1	obsgroup
obs671	81.683333	1	obsgroup
obs672	77.308333	1	obsgroup
obs673	100.357292	1	obsgroup
obs674	99.010417	1	obsgroup
obs675	118.113542	1	obsgroup
obs676	141.864583	1	obsgroup
obs677	114.593750	1	obsgroup
obs678	104.166667	1	obsgroup
obs679	98.021875	1	obsgroup
obs680	90.061458	1	obsgroup
obs681	85.183333	1	obsgroup
obs682	104.769792	1	obsgroup
obs683	164.854167	1	obsgroup
obs684	141.239583	1	obsgroup
obs685	133.812500	1	obsgroup
obs686	547.979167	1	obsgroup
obs687	804.093750	1	obsgroup
obs688	718.281250	1	obsgroup
obs689	507.677083	1	obsgroup
obs690	384.489583	1	obsgroup
obs691	1246.437500	1	obsgroup
obs692	2717.187500	1	obsgroup
obs693	2107.187500	1	obsgroup
obs694	1975.208333	1	obsgroup
obs695	1531.666667	1	obsgroup
obs696	1090.260417	1	obsgroup
obs697	986.687500	1	obsgroup
obs698	810.354167	1	obsgroup
obs699	713.927083	1	obsgroup
obs700	0.000000	0	obsgroup
obs701	0.000000	0	obsgroup
obs702	495.729167	1	obsgroup
obs703	449.947917	1	obsgroup
obs704	412.593750	1	obsgroup
obs705	382.072917	1	obsgroup
obs706	0.000000	0	obsgroup
obs707	0.000000	0	obsgroup
obs708	0.000000	0	obsgroup
obs709	0.000000	0	obsgroup
obs710	0.000000	0	obsgroup
obs711	0.000000	0	obsgroup
obs712	0.000000	0	obsgroup
obs713	247.791667	1	obsgroup
obs714	253.510417	1	obsgroup
obs715	256.031250	1	obsgroup
obs716	237.302083	1	obsgroup
obs717	226.427083	1	obsgroup
obs718	217.156250	1	obsgroup
obs719	209.947917	1	obsgroup
obs720	203.447917	1	obsgroup
obs721	196.583333	1	obsgroup
obs722	190.781250	1	obsgroup
obs723	186.020833	1	obsgroup
obs724	184.062500	1	obsgroup
obs725	205.968750	1	obsgroup
obs726	204.281250	1	obsgroup
obs727	1384.020833	1	obsgroup
obs728	4294.062500	1	obsgroup
obs729	5739.687500	1	obsgroup
obs730	7575.729167	1	obsgroup
obs731	4838.541667	1	obsgroup
obs732	2460.937500	1	obsgroup
obs733	1781.458333	1	obsgroup
obs734	1429.583333	1	obsgroup
obs735	0.000000	0	obsgroup
obs736	0.000000	0	obsgroup
obs737	1077.291667	1	obsgroup
obs738	960.375000	1	obsgroup
obs739	866.145833	1	obsgroup
obs740	835.375000	1	obsgroup
obs741	762.062500	1	obsgroup
obs742	694.395833	1	obsgroup
obs743	641.687500	1	obsgroup
obs744	601.270833	1	obsgroup
obs745	594.937500	1	obsgroup
obs746	588.062500	1	obsgroup
obs747	813.437500	1	obsgroup
obs748	4384.791667	1	obsgroup
obs749	25705.416667	1	obsgroup
obs750	17800.000000	1	obsgroup
obs751	8831.875000	1	obsgroup
obs752	7204.583333	1	obsgroup
obs753	5625.000000	1	obsgroup
obs754	4059.375000	1	obsgroup
obs755	6010.833333	1	obsgroup
obs756	5878.750000	1	obsgroup
obs757	3944.375000	1	obsgroup
obs758	2658.958333	1	obsgroup
obs759	2098.750000	1	obsgroup
obs760	2518.125000	1	obsgroup
obs761	2158.125000	1	obsgroup
obs762	1887.083333	1	obsgroup
obs763	1629.183673	1	obsgroup
obs764	1420.625000	1	obsgroup
obs765	1257.708333	1	obsgroup
obs766	1127.083333	1	obsgroup
obs767	1026.604167	1	obsgroup
obs768	941.791667	1	obsgroup
obs769	913.395833	1	obsgroup
obs770	1175.000000	1	obsgroup
obs771	1085.000000	1	obsgroup
obs772	1002.291667	1	obsgroup
obs773	916.104167	1	obsgroup
obs774	923.104167	1	obsgroup
obs775	877.562500	1	obsgroup
obs776	882.083333	1	obsgroup
obs777	816.625000	1	obsgroup
obs778	800.312500	1	obsgroup
obs779	918.166667	1	obsgroup
obs780	994.104167	1	obsgroup
obs781	1004.312500	1	obsgroup
obs782	1068.125000	1	obsgroup
obs783	1415.000000	1	obsgroup
obs784	1918.750000	1	obsgroup
obs785	1569.375000	1	obsgroup
obs786	1672.916667	1	obsgroup
obs787	1666.250000	1	obsgroup
obs788	1492.916667	1	obsgroup
obs789	1320.625000	1	obsgroup
obs790	1574.791667	1	obsgroup
obs791	2157.291667	1	obsgroup
obs792	2048.958333	1	obsgroup
obs793	1745.208333	1	obsgroup
obs794	1606.666667	1	obsgroup
obs795	1508.541667	1	obsgroup
obs796	1693.333333	1	obsgroup
obs797	1461.250000	1	obsgroup
obs798	1276.041667	1	obsgroup
obs799	1139.791667	1	obsgroup
obs800	0.000000	0	obsgroup
obs801	0.000000	0	obsgroup
obs802	0.000000	0	obsgroup
obs803	0.000000	0	obsgroup
obs804	2744.680851	1	obsgroup
obs805	0.000000	0	obsgroup
obs806	0.000000	0	obsgroup
obs807	5945.000000	1	obsgroup
obs808	4154.583333	1	obsgroup
obs809	2777.500000	1	obsgroup
obs810	2317.916667	1	obsgroup
obs811	2697.916667	1	obsgroup
obs812	2953.555556	1	obsgroup
obs813	2786.250000	1	obsgroup
obs814	2338.333333	1	obsgroup
obs815	2014.791667	1	obsgroup
obs816	1872.916667	1	obsgroup
obs817	0.000000	0	obsgroup
obs818	0.000000	0	obsgroup
obs819	2105.833333	1	obsgroup
obs820	5378.750000	1	obsgroup
obs821	8392.916667	1	obsgroup
obs822	0.000000	0	obsgroup
obs823	0.000000	0	obsgroup
obs824	3760.312500	1	obsgroup
obs825	2739.791667	1	obsgroup
obs826	2286.354167	1	obsgroup
obs827	1941.666667	1	obsgroup
obs828	1658.854167	1	obsgroup
obs829	1439.479167	1	obsgroup
obs830	1231.770833	1	obsgroup
obs831	0.000000	0	obsgroup
obs832	0.000000	0	obsgroup
obs833	0.000000	0	obsgroup
obs834	1073.229167	1	obsgroup
obs835	954.895833	1	obsgroup
obs836	862.520833	1	obsgroup
obs837	960.583333	1	obsgroup
obs838	1058.302083	1	obsgroup
obs839	972.906250	1	obsgroup
obs840	935.406250	1	obsgroup
obs841	1112.468750	1	obsgroup
obs842	1090.312500	1	obsgroup
obs843	988.697917	1	obsgroup
obs844	895.645833	1	obsgroup
obs845	816.187500	1	obsgroup
obs846	772.979167	1	obsgroup
obs847	788.312500	1	obsgroup
obs848	805.218750	1	obsgroup
obs849	752.729167	1	obsgroup
obs850	694.656250	1	obsgroup
obs851	677.615385	1	obsgroup
obs852	702.164706	1	obsgroup
obs853	695.416667	1	obsgroup
obs854	1040.191011	1	obsgroup
obs855	1690.568182	1	obsgroup
obs856	1419.767442	1	obsgroup
obs857	1185.529412	1	obsgroup
obs858	1023.166667	1	obsgroup
obs859	901.781250	1	obsgroup
obs860	806.739583	1	obsgroup
obs861	727.447917	1	obsgroup
obs862	672.635417	1	obsgroup
obs863	620.750000	1	obsgroup
obs864	571.552083	1	obsgroup
obs865	528.726316	1	obsgroup
obs866	497.086957	1	obsgroup
obs867	470.023256	1	obsgroup
obs868	440.377778	1	obsgroup
obs869	416.623529	1	obsgroup
obs870	400.104167	1	obsgroup
obs871	383.041667	1	obsgroup
obs872	390.104167	1	obsgroup
obs873	465.389474	1	obsgroup
obs874	509.572917	1	obsgroup
obs875	500.645833	1	obsgroup
obs876	538.229167	1	obsgroup
obs877	462.333333	1	obsgroup
obs878	417.427083	1	obsgroup
obs879	391.750000	1	obsgroup
obs880	367.843750	1	obsgroup
obs881	346.885417	1	obsgroup
obs882	326.385417	1	obsgroup
obs883	313.520833	1	obsgroup
obs884	307.614583	1	obsgroup
obs885	295.333333	1	obsgroup
obs886	294.926316	1	obsgroup
obs887	322.593750	1	obsgroup
obs888	294.520833	1	obsgroup
obs889	293.333333	1	obsgroup
obs890	382.666667	1	obsgroup
obs891	413.718750	1	obsgroup
obs892	372.875000	1	obsgroup
obs893	334.625000	1	obsgroup
obs894	313.750000	1	obsgroup
obs895	302.437500	1	obsgroup
obs896	279.739583	1	obsgroup
obs897	262.406250	1	obsgroup
obs898	248.510417	1	obsgroup
obs899	236.614583	1	obsgroup
obs900	228.750000	1	obsgroup
obs901	227.572917	1	obsgroup
obs902	226.395833	1	obsgroup
obs903	209.458333	1	obsgroup
obs904	198.854167	1	obsgroup
obs905	223.489583	1	obsgroup
obs906	220.208333	1	obsgroup
obs907	220.645833	1	obsgroup
obs908	222.479167	1	obsgroup
obs909	209.343750	1	obsgroup
obs910	192.343750	1	obsgroup
obs911	185.093750	1	obsgroup
obs912	184.447917	1	obsgroup
obs913	194.156250	1	obsgroup
obs914	185.583333	1	obsgroup
obs915	173.968750	1	obsgroup
obs916	173.947917	1	obsgroup
obs917	160.687500	1	obsgroup
obs918	151.093750	1	obsgroup
obs919	143.895833	1	obsgroup
obs920	138.187500	1	obsgroup
obs921	133.531250	1	obsgroup
obs922	126.937500	1	obsgroup
obs923	124.343750	1	obsgroup
obs924	118.427083	1	obsgroup
obs925	116.239583	1	obsgroup
obs926	112.145833	1	obsgroup
obs927	108.114583	1	obsgroup
obs928	108.145833	1	obsgroup
obs929	105.833333	1	obsgroup
obs930	106.031250	1	obsgroup
obs931	106.958333	1	obsgroup
obs932	101.952083	1	obsgroup
obs933	100.278125	1	obsgroup
obs934	100.645833	1	obsgroup
obs935	96.558333	1	obsgroup
obs936	94.317708	1	obsgroup
obs937	90.190625	1	obsgroup
obs938	85.960417	1	obsgroup
obs939	82.232292	1	obsgroup
obs940	81.832292	1	obsgroup
obs941	80.602083	1	obsgroup
obs942	80.452083	1	obsgroup
obs943	79.686458	1	obsgroup
obs944	77.492708	1	obsgroup
obs945	76.084375	1	obsgroup