pcf
* control data
restart  estimation
    8  3287     8     0     1
    1     1 single point   1   0   0
  5.0   2.0   0.3  0.03    10  999  lamforgive  derforgive
  3.0   3.0 0.001  0
  0.1
   30  0.01     3     3  0.01     3
    1     1     1     1
* parameter groups
fc           relative 0.01  0.0  switch  2.0 parabolic
beta         relative 0.01  0.0  switch  2.0 parabolic
perc         relative 0.01  0.0  switch  2.0 parabolic
uzl          relative 0.01  0.0  switch  2.0 parabolic
k0           relative 0.01  0.0  switch  2.0 parabolic
k1           relative 0.01  0.0  switch  2.0 parabolic
k2           relative 0.01  0.0  switch  2.0 parabolic
et_mult      relative 0.01  0.0  switch  2.0 parabolic
* parameter data
fc           none relative   191.49       50.000000  600.000000      fc              1.0000        0.0000      1
beta         none relative   2.244        1.000000    6.000000       beta            1.0000        0.0000      1
perc         none relative   0.191        0.000100    0.500000       perc            1.0000        0.0000      1
uzl          none relative   1.365        0.100000   75.000000       uzl             1.0000        0.0000      1
k0           none relative   0.534        0.050000    0.700000       k0              1.0000        0.0000      1
k1           none relative   0.279        0.010000    0.400000       k1              1.0000        0.0000      1
k2           none relative   0.061	  0.000100    0.150000       k2              1.0000        0.0000      1
et_mult      none relative   1            0.100000    10.00000       et_mult         1.0000        0.0000      1
* observation groups
obsgroup
* observation data
obs1	4042.086957	1	obsgroup
obs2	2858.737864	1	obsgroup
obs3	1934.913793	1	obsgroup
obs4	1494.036697	1	obsgroup
obs5	1872.962963	1	obsgroup
obs6	3542.758621	1	obsgroup
obs7	2333.739130	1	obsgroup
obs8	1698.508772	1	obsgroup
obs9	1411.666667	1	obsgroup
obs10	1163.445378	1	obsgroup
obs11	985.416667	1	obsgroup
obs12	969.000000	1	obsgroup
obs13	973.990566	1	obsgroup
obs14	1123.982301	1	obsgroup
obs15	984.726496	1	obsgroup
obs16	1409.401709	1	obsgroup
obs17	1514.830508	1	obsgroup
obs18	1487.857143	1	obsgroup
obs19	1200.000000	1	obsgroup
obs20	980.684211	1	obsgroup
obs21	823.372727	1	obsgroup
obs22	720.854545	1	obsgroup
obs23	639.259259	1	obsgroup
obs24	660.779661	1	obsgroup
obs25	1000.188034	1	obsgroup
obs26	945.398058	1	obsgroup
obs27	799.850467	1	obsgroup
obs28	698.783333	1	obsgroup
obs29	632.283019	1	obsgroup
obs30	607.000000	1	obsgroup
obs31	605.846847	1	obsgroup
obs32	602.119658	1	obsgroup
obs33	701.189655	1	obsgroup
obs34	673.658120	1	obsgroup
obs35	703.061404	1	obsgroup
obs36	702.550459	1	obsgroup
obs37	659.587719	1	obsgroup
obs38	647.610619	1	obsgroup
obs39	607.823009	1	obsgroup
obs40	564.384615	1	obsgroup
obs41	528.783784	1	obsgroup
obs42	653.716981	1	obsgroup
obs43	1054.467290	1	obsgroup
obs44	1026.842593	1	obsgroup
obs45	941.710526	1	obsgroup
obs46	867.860870	1	obsgroup
obs47	854.241071	1	obsgroup
obs48	795.025862	1	obsgroup
obs49	705.401786	1	obsgroup
obs50	625.530973	1	obsgroup
obs51	555.943396	1	obsgroup
obs52	497.660194	1	obsgroup
obs53	450.758333	1	obsgroup
obs54	423.194690	1	obsgroup
obs55	530.221239	1	obsgroup
obs56	688.375000	1	obsgroup
obs57	698.016807	1	obsgroup
obs58	689.844660	1	obsgroup
obs59	597.184211	1	obsgroup
obs60	531.786325	1	obsgroup
obs61	488.491379	1	obsgroup
obs62	482.060870	1	obsgroup
obs63	466.916667	1	obsgroup
obs64	431.433962	1	obsgroup
obs65	401.324324	1	obsgroup
obs66	375.345455	1	obsgroup
obs67	383.710280	1	obsgroup
obs68	347.927928	1	obsgroup
obs69	342.779817	1	obsgroup
obs70	385.586538	1	obsgroup
obs71	757.619469	1	obsgroup
obs72	775.594595	1	obsgroup
obs73	646.054545	1	obsgroup
obs74	591.966387	1	obsgroup
obs75	584.216216	1	obsgroup
obs76	557.336538	1	obsgroup
obs77	508.955357	1	obsgroup
obs78	464.990991	1	obsgroup
obs79	430.781818	1	obsgroup
obs80	460.018519	1	obsgroup
obs81	605.368932	1	obsgroup
obs82	558.350877	1	obsgroup
obs83	508.348214	1	obsgroup
obs84	649.619469	1	obsgroup
obs85	1148.883929	1	obsgroup
obs86	1150.964912	1	obsgroup
obs87	1098.738739	1	obsgroup
obs88	5191.081081	1	obsgroup
obs89	4469.914530	1	obsgroup
obs90	2614.727273	1	obsgroup
obs91	1861.946903	1	obsgroup
obs92	1800.277778	1	obsgroup
obs93	1767.457627	1	obsgroup
obs94	1426.379310	1	obsgroup
obs95	1210.964912	1	obsgroup
obs96	1138.545455	1	obsgroup
obs97	1177.818182	1	obsgroup
obs98	1326.481481	1	obsgroup
obs99	1159.908257	1	obsgroup
obs100	1020.192661	1	obsgroup
obs101	1024.514563	1	obsgroup
obs102	1088.173077	1	obsgroup
obs103	1213.301887	1	obsgroup
obs104	1403.106796	1	obsgroup
obs105	1766.513761	1	obsgroup
obs106	1566.090909	1	obsgroup
obs107	1432.242991	1	obsgroup
obs108	1338.899083	1	obsgroup
obs109	1287.685185	1	obsgroup
obs110	1313.750000	1	obsgroup
obs111	1560.294118	1	obsgroup
obs112	1278.807339	1	obsgroup
obs113	1080.934579	1	obsgroup
obs114	1022.907407	1	obsgroup
obs115	906.081081	1	obsgroup
obs116	828.709091	1	obsgroup
obs117	1736.692982	1	obsgroup
obs118	2036.571429	1	obsgroup
obs119	2101.578947	1	obsgroup
obs120	2086.363636	1	obsgroup
obs121	1905.185185	1	obsgroup
obs122	1855.225225	1	obsgroup
obs123	2320.181818	1	obsgroup
obs124	2462.018349	1	obsgroup
obs125	1869.897959	1	obsgroup
obs126	1510.283019	1	obsgroup
obs127	1265.700935	1	obsgroup
obs128	1084.038462	1	obsgroup
obs129	961.796296	1	obsgroup
obs130	1008.372549	1	obsgroup
obs131	1035.547170	1	obsgroup
obs132	956.719626	1	obsgroup
obs133	883.134615	1	obsgroup
obs134	826.183486	1	obsgroup
obs135	789.576923	1	obsgroup
obs136	760.481481	1	obsgroup
obs137	749.412844	1	obsgroup
obs138	856.894737	1	obsgroup
obs139	942.336449	1	obsgroup
obs140	1336.363636	1	obsgroup
obs141	1268.636364	1	obsgroup
obs142	1180.088496	1	obsgroup
obs143	1157.586207	1	obsgroup
obs144	1071.754386	1	obsgroup
obs145	963.926606	1	obsgroup
obs146	1051.302752	1	obsgroup
obs147	1063.301887	1	obsgroup
obs148	977.169643	1	obsgroup
obs149	863.241379	1	obsgroup
obs150	760.848214	1	obsgroup
obs151	842.991453	1	obsgroup
obs152	941.956897	1	obsgroup
obs153	3607.026549	1	obsgroup
obs154	4700.540541	1	obsgroup
obs155	5777.435897	1	obsgroup
obs156	4093.063063	1	obsgroup
obs157	2554.862385	1	obsgroup
obs158	1999.380531	1	obsgroup
obs159	1558.333333	1	obsgroup
obs160	1654.067797	1	obsgroup
obs161	2216.754386	1	obsgroup
obs162	2340.170940	1	obsgroup
obs163	1839.736842	1	obsgroup
obs164	1439.561404	1	obsgroup
obs165	1154.629630	1	obsgroup
obs166	975.385965	1	obsgroup
obs167	906.982759	1	obsgroup
obs168	867.791304	1	obsgroup
obs169	741.075630	1	obsgroup
obs170	658.380165	1	obsgroup
obs171	605.559322	1	obsgroup
obs172	562.454545	1	obsgroup
obs173	503.451327	1	obsgroup
obs174	463.695652	1	obsgroup
obs175	426.017094	1	obsgroup
obs176	394.921739	1	obsgroup
obs177	368.630631	1	obsgroup
obs178	341.321429	1	obsgroup
obs179	319.479339	1	obsgroup
obs180	304.833333	1	obsgroup
obs181	288.520325	1	obsgroup
obs182	269.940171	1	obsgroup
obs183	289.864865	1	obsgroup
obs184	276.379310	1	obsgroup
obs185	250.260870	1	obsgroup
obs186	236.269565	1	obsgroup
obs187	223.591304	1	obsgroup
obs188	207.741379	1	obsgroup
obs189	196.537190	1	obsgroup
obs190	188.068966	1	obsgroup
obs191	181.051724	1	obsgroup
obs192	173.955752	1	obsgroup
obs193	169.409836	1	obsgroup
obs194	163.221311	1	obsgroup
obs195	156.350427	1	obsgroup
obs196	149.946903	1	obsgroup
obs197	143.783784	1	obsgroup
obs198	140.110169	1	obsgroup
obs199	136.179487	1	obsgroup
obs200	132.341880	1	obsgroup
obs201	128.508333	1	obsgroup
obs202	125.155172	1	obsgroup
obs203	121.500000	1	obsgroup
obs204	116.728814	1	obsgroup
obs205	113.172414	1	obsgroup
obs206	108.728814	1	obsgroup
obs207	104.923077	1	obsgroup
obs208	102.105263	1	obsgroup
obs209	100.781197	1	obsgroup
obs210	98.873043	1	obsgroup
obs211	96.127273	1	obsgroup
obs212	93.579167	1	obsgroup
obs213	92.870270	1	obsgroup
obs214	90.880000	1	obsgroup
obs215	88.027434	1	obsgroup
obs216	85.998131	1	obsgroup
obs217	84.713889	1	obsgroup
obs218	82.435185	1	obsgroup
obs219	79.873276	1	obsgroup
obs220	78.566055	1	obsgroup
obs221	77.145455	1	obsgroup
obs222	75.873585	1	obsgroup
obs223	74.085185	1	obsgroup
obs224	72.015741	1	obsgroup
obs225	69.947748	1	obsgroup
obs226	66.348182	1	obsgroup
obs227	63.415517	1	obsgroup
obs228	62.517391	1	obsgroup
obs229	61.029915	1	obsgroup
obs230	62.493750	1	obsgroup
obs231	62.308491	1	obsgroup
obs232	60.592727	1	obsgroup
obs233	59.020536	1	obsgroup
obs234	57.927119	1	obsgroup
obs235	57.708475	1	obsgroup
obs236	56.296581	1	obsgroup
obs237	53.931373	1	obsgroup
obs238	52.165625	1	obsgroup
obs239	52.095960	1	obsgroup
obs240	52.291071	1	obsgroup
obs241	51.682906	1	obsgroup
obs242	70.633636	1	obsgroup
obs243	78.205660	1	obsgroup
obs244	88.599091	1	obsgroup
obs245	96.735294	1	obsgroup
obs246	71.465179	1	obsgroup
obs247	62.134188	1	obsgroup
obs248	58.418644	1	obsgroup
obs249	55.831304	1	obsgroup
obs250	57.767257	1	obsgroup
obs251	87.280734	1	obsgroup
obs252	127.975676	1	obsgroup
obs253	123.327027	1	obsgroup
obs254	85.810000	1	obsgroup
obs255	73.579646	1	obsgroup
obs256	67.227679	1	obsgroup
obs257	63.672072	1	obsgroup
obs258	61.018919	1	obsgroup
obs259	60.056522	1	obsgroup
obs260	59.243750	1	obsgroup
obs261	69.761345	1	obsgroup
obs262	243.591964	1	obsgroup
obs263	499.034188	1	obsgroup
obs264	249.949580	1	obsgroup
obs265	165.025641	1	obsgroup
obs266	134.309735	1	obsgroup
obs267	123.336283	1	obsgroup
obs268	108.424779	1	obsgroup
obs269	99.261111	1	obsgroup
obs270	92.228571	1	obsgroup
obs271	86.227027	1	obsgroup
obs272	82.083784	1	obsgroup
obs273	78.282906	1	obsgroup
obs274	73.796552	1	obsgroup
obs275	70.900000	1	obsgroup
obs276	69.605932	1	obsgroup
obs277	68.500000	1	obsgroup
obs278	66.883621	1	obsgroup
obs279	64.652632	1	obsgroup
obs280	62.050000	1	obsgroup
obs281	61.384314	1	obsgroup
obs282	141.200000	1	obsgroup
obs283	235.184874	1	obsgroup
obs284	211.375000	1	obsgroup
obs285	144.233333	1	obsgroup
obs286	118.508333	1	obsgroup
obs287	103.127966	1	obsgroup
obs288	95.019298	1	obsgroup
obs289	89.292727	1	obsgroup
obs290	84.616102	1	obsgroup
obs291	80.587179	1	obsgroup
obs292	76.947059	1	obsgroup
obs293	73.573684	1	obsgroup
obs294	70.337500	1	obsgroup
obs295	75.498305	1	obsgroup
obs296	106.635088	1	obsgroup
obs297	758.473684	1	obsgroup
obs298	1828.073394	1	obsgroup
obs299	1841.929825	1	obsgroup
obs300	1002.932773	1	obsgroup
obs301	697.250000	1	obsgroup
obs302	710.078261	1	obsgroup
obs303	608.971429	1	obsgroup
obs304	880.068966	1	obsgroup
obs305	748.840708	1	obsgroup
obs306	820.469027	1	obsgroup
obs307	690.830508	1	obsgroup
obs308	524.561404	1	obsgroup
obs309	421.043478	1	obsgroup
obs310	354.517241	1	obsgroup
obs311	1117.591304	1	obsgroup
obs312	1179.487179	1	obsgroup
obs313	1004.333333	1	obsgroup
obs314	1497.563025	1	obsgroup
obs315	1163.109244	1	obsgroup
obs316	957.310345	1	obsgroup
obs317	765.878261	1	obsgroup
obs318	886.850000	1	obsgroup
obs319	1050.561404	1	obsgroup
obs320	1334.601770	1	obsgroup
obs321	1177.226891	1	obsgroup
obs322	2815.299145	1	obsgroup
obs323	1992.644628	1	obsgroup
obs324	1427.094017	1	obsgroup
obs325	1096.610169	1	obsgroup
obs326	992.983193	1	obsgroup
obs327	915.325000	1	obsgroup
obs328	701.627119	1	obsgroup
obs329	599.923729	1	obsgroup
obs330	672.566667	1	obsgroup
obs331	1205.630252	1	obsgroup
obs332	1112.941176	1	obsgroup
obs333	953.932203	1	obsgroup
obs334	1710.369748	1	obsgroup
obs335	3774.789916	1	obsgroup
obs336	3028.487395	1	obsgroup
obs337	2212.941176	1	obsgroup
obs338	1621.186441	1	obsgroup
obs339	1340.530973	1	obsgroup
obs340	1343.135593	1	obsgroup
obs341	1356.581197	1	obsgroup
obs342	1623.025210	1	obsgroup
obs343	2315.000000	1	obsgroup
obs344	3617.606838	1	obsgroup
obs345	4119.482759	1	obsgroup
obs346	5996.833333	1	obsgroup
obs347	8242.758621	1	obsgroup
obs348	6769.482759	1	obsgroup
obs349	3795.470085	1	obsgroup
obs350	2395.210084	1	obsgroup
obs351	1726.355932	1	obsgroup
obs352	1459.568966	1	obsgroup
obs353	1239.827586	1	obsgroup
obs354	1105.000000	1	obsgroup
obs355	1000.737288	1	obsgroup
obs356	873.965517	1	obsgroup
obs357	742.765217	1	obsgroup
obs358	652.495726	1	obsgroup
obs359	620.110169	1	obsgroup
obs360	673.694915	1	obsgroup
obs361	730.855932	1	obsgroup
obs362	3368.067227	1	obsgroup
obs363	4297.456140	1	obsgroup
obs364	2203.697479	1	obsgroup
obs365	1485.500000	1	obsgroup
obs366	1145.166667	1	obsgroup
obs367	950.378151	1	obsgroup
obs368	791.613445	1	obsgroup
obs369	688.841667	1	obsgroup
obs370	624.050000	1	obsgroup
obs371	592.733333	1	obsgroup
obs372	603.932773	1	obsgroup
obs373	792.403361	1	obsgroup
obs374	708.403361	1	obsgroup
obs375	613.758333	1	obsgroup
obs376	552.025000	1	obsgroup
obs377	742.731092	1	obsgroup
obs378	1939.750000	1	obsgroup
obs379	2945.909091	1	obsgroup
obs380	3275.272727	1	obsgroup
obs381	0.000000	0	obsgroup
obs382	0.000000	0	obsgroup
obs383	3819.500000	1	obsgroup
obs384	3662.542373	1	obsgroup
obs385	2447.166667	1	obsgroup
obs386	1876.410256	1	obsgroup
obs387	1534.358974	1	obsgroup
obs388	1241.880342	1	obsgroup
obs389	1045.196581	1	obsgroup
obs390	899.247863	1	obsgroup
obs391	775.705882	1	obsgroup
obs392	698.882353	1	obsgroup
obs393	651.100840	1	obsgroup
obs394	603.058824	1	obsgroup
obs395	549.444444	1	obsgroup
obs396	500.672269	1	obsgroup
obs397	456.949580	1	obsgroup
obs398	418.907563	1	obsgroup
obs399	387.907563	1	obsgroup
obs400	367.588235	1	obsgroup
obs401	470.525424	1	obsgroup
obs402	520.118644	1	obsgroup
obs403	577.274336	1	obsgroup
obs404	636.529915	1	obsgroup
obs405	564.616667	1	obsgroup
obs406	505.747899	1	obsgroup
obs407	473.456897	1	obsgroup
obs408	452.066667	1	obsgroup
obs409	507.872881	1	obsgroup
obs410	522.983193	1	obsgroup
obs411	1044.200000	1	obsgroup
obs412	1118.728814	1	obsgroup
obs413	832.466667	1	obsgroup
obs414	686.277311	1	obsgroup
obs415	596.844037	1	obsgroup
obs416	531.487179	1	obsgroup
obs417	479.915966	1	obsgroup
obs418	461.302521	1	obsgroup
obs419	438.644068	1	obsgroup
obs420	414.150000	1	obsgroup
obs421	370.017391	1	obsgroup
obs422	338.853448	1	obsgroup
obs423	336.672269	1	obsgroup
obs424	533.375000	1	obsgroup
obs425	1125.762712	1	obsgroup
obs426	1197.731092	1	obsgroup
obs427	1150.956522	1	obsgroup
obs428	971.547009	1	obsgroup
obs429	1650.000000	1	obsgroup
obs430	1411.596639	1	obsgroup
obs431	1072.582609	1	obsgroup
obs432	1209.441667	1	obsgroup
obs433	1583.333333	1	obsgroup
obs434	2807.090909	1	obsgroup
obs435	2390.840336	1	obsgroup
obs436	1648.487395	1	obsgroup
obs437	1510.446429	1	obsgroup
obs438	1897.094017	1	obsgroup
obs439	2014.051724	1	obsgroup
obs440	2533.675214	1	obsgroup
obs441	2097.731092	1	obsgroup
obs442	1679.145299	1	obsgroup
obs443	1397.372881	1	obsgroup
obs444	1167.500000	1	obsgroup
obs445	1106.302521	1	obsgroup
obs446	1103.025210	1	obsgroup
obs447	978.887931	1	obsgroup
obs448	907.694915	1	obsgroup
obs449	855.034188	1	obsgroup
obs450	1030.172414	1	obsgroup
obs451	1186.782609	1	obsgroup
obs452	1347.567568	1	obsgroup
obs453	1852.857143	1	obsgroup
obs454	3608.558559	1	obsgroup
obs455	2977.549020	1	obsgroup
obs456	2623.157895	1	obsgroup
obs457	2718.086957	1	obsgroup
obs458	2069.745763	1	obsgroup
obs459	1714.358974	1	obsgroup
obs460	3682.857143	1	obsgroup
obs461	2610.416667	1	obsgroup
obs462	2046.666667	1	obsgroup
obs463	1628.482143	1	obsgroup
obs464	1325.321101	1	obsgroup
obs465	1131.467890	1	obsgroup
obs466	1310.636364	1	obsgroup
obs467	1215.092593	1	obsgroup
obs468	1055.855856	1	obsgroup
obs469	1001.743802	1	obsgroup
obs470	1466.324786	1	obsgroup
obs471	3284.741379	1	obsgroup
obs472	3806.465517	1	obsgroup
obs473	2354.745763	1	obsgroup
obs474	1692.990654	1	obsgroup
obs475	1317.314815	1	obsgroup
obs476	1089.205607	1	obsgroup
obs477	911.298246	1	obsgroup
obs478	806.677966	1	obsgroup
obs479	863.596639	1	obsgroup
obs480	1318.965812	1	obsgroup
obs481	1784.873950	1	obsgroup
obs482	1662.857143	1	obsgroup
obs483	1464.677419	1	obsgroup
obs484	1372.782609	1	obsgroup
obs485	1301.621622	1	obsgroup
obs486	1123.904762	1	obsgroup
obs487	1045.543478	1	obsgroup
obs488	966.666667	1	obsgroup
obs489	902.887931	1	obsgroup
obs490	961.575221	1	obsgroup
obs491	992.151786	1	obsgroup
obs492	1097.413793	1	obsgroup
obs493	1260.796460	1	obsgroup
obs494	1259.912281	1	obsgroup
obs495	1151.696429	1	obsgroup
obs496	1216.041667	1	obsgroup
obs497	1548.020833	1	obsgroup
obs498	1338.125000	1	obsgroup
obs499	1253.020833	1	obsgroup
obs500	1205.312500	1	obsgroup
obs501	1262.187500	1	obsgroup
obs502	1149.636364	1	obsgroup
obs503	1073.142857	1	obsgroup
obs504	1008.064220	1	obsgroup
obs505	993.634783	1	obsgroup
obs506	1028.245614	1	obsgroup
obs507	953.897196	1	obsgroup
obs508	875.160377	1	obsgroup
obs509	830.981308	1	obsgroup
obs510	979.232143	1	obsgroup
obs511	1114.601770	1	obsgroup
obs512	1474.210526	1	obsgroup
obs513	1624.953271	1	obsgroup
obs514	1402.660550	1	obsgroup
obs515	1336.146789	1	obsgroup
obs516	1578.090909	1	obsgroup
obs517	1693.214286	1	obsgroup
obs518	1811.834862	1	obsgroup
obs519	1626.636364	1	obsgroup
obs520	1449.189189	1	obsgroup
obs521	1445.961538	1	obsgroup
obs522	1515.233645	1	obsgroup
obs523	1300.471698	1	obsgroup
obs524	1112.990654	1	obsgroup
obs525	967.432692	1	obsgroup
obs526	941.108911	1	obsgroup
obs527	908.513514	1	obsgroup
obs528	828.280374	1	obsgroup
obs529	915.657407	1	obsgroup
obs530	850.531532	1	obsgroup
obs531	773.891892	1	obsgroup
obs532	686.685714	1	obsgroup
obs533	629.562500	1	obsgroup
obs534	625.500000	1	obsgroup
obs535	723.414414	1	obsgroup
obs536	667.247788	1	obsgroup
obs537	650.490909	1	obsgroup
obs538	636.711712	1	obsgroup
obs539	601.400000	1	obsgroup
obs540	515.964602	1	obsgroup
obs541	462.425926	1	obsgroup
obs542	428.574074	1	obsgroup
obs543	412.696429	1	obsgroup
obs544	479.925234	1	obsgroup
obs545	440.973684	1	obsgroup
obs546	454.208696	1	obsgroup
obs547	405.266055	1	obsgroup
obs548	367.705357	1	obsgroup
obs549	347.654867	1	obsgroup
obs550	323.863636	1	obsgroup
obs551	302.000000	1	obsgroup
obs552	287.464912	1	obsgroup
obs553	272.392857	1	obsgroup
obs554	253.823009	1	obsgroup
obs555	233.884956	1	obsgroup
obs556	220.966102	1	obsgroup
obs557	210.630252	1	obsgroup
obs558	214.389381	1	obsgroup
obs559	233.176991	1	obsgroup
obs560	200.513043	1	obsgroup
obs561	186.168142	1	obsgroup
obs562	204.824074	1	obsgroup
obs563	232.453704	1	obsgroup
obs564	202.133929	1	obsgroup
obs565	334.357143	1	obsgroup
obs566	321.220339	1	obsgroup
obs567	255.803571	1	obsgroup
obs568	227.982301	1	obsgroup
obs569	207.109244	1	obsgroup
obs570	189.783784	1	obsgroup
obs571	177.634783	1	obsgroup
obs572	170.552632	1	obsgroup
obs573	161.279661	1	obsgroup
obs574	153.975207	1	obsgroup
obs575	146.360656	1	obsgroup
obs576	139.619835	1	obsgroup
obs577	133.709402	1	obsgroup
obs578	129.105263	1	obsgroup
obs579	124.237288	1	obsgroup
obs580	120.191667	1	obsgroup
obs581	115.565217	1	obsgroup
obs582	112.745763	1	obsgroup
obs583	109.637931	1	obsgroup
obs584	106.175439	1	obsgroup
obs585	103.086207	1	obsgroup
obs586	101.955000	1	obsgroup
obs587	97.970833	1	obsgroup
obs588	94.011111	1	obsgroup
obs589	91.455357	1	obsgroup
obs590	89.312500	1	obsgroup
obs591	88.491753	1	obsgroup
obs592	85.911009	1	obsgroup
obs593	85.005085	1	obsgroup
obs594	83.709735	1	obsgroup
obs595	80.514783	1	obsgroup
obs596	79.274576	1	obsgroup
obs597	78.246903	1	obsgroup
obs598	76.092661	1	obsgroup
obs599	73.885714	1	obsgroup
obs600	72.543363	1	obsgroup
obs601	71.396460	1	obsgroup
obs602	70.858621	1	obsgroup
obs603	68.710435	1	obsgroup
obs604	66.984211	1	obsgroup
obs605	65.233621	1	obsgroup
obs606	63.732456	1	obsgroup
obs607	64.307965	1	obsgroup
obs608	63.127586	1	obsgroup
obs609	62.561538	1	obsgroup
obs610	61.441176	1	obsgroup
obs611	60.000000	1	obsgroup
obs612	57.470909	1	obsgroup
obs613	55.926891	1	obsgroup
obs614	55.264912	1	obsgroup
obs615	54.547458	1	obsgroup
obs616	53.434545	1	obsgroup
obs617	52.836842	1	obsgroup
obs618	52.176522	1	obsgroup
obs619	50.437931	1	obsgroup
obs620	49.194872	1	obsgroup
obs621	49.588571	1	obsgroup
obs622	50.499074	1	obsgroup
obs623	52.245378	1	obsgroup
obs624	52.165517	1	obsgroup
obs625	51.050450	1	obsgroup
obs626	50.065487	1	obsgroup
obs627	48.879310	1	obsgroup
obs628	48.493805	1	obsgroup
obs629	47.453571	1	obsgroup
obs630	45.703478	1	obsgroup
obs631	44.779310	1	obsgroup
obs632	44.363303	1	obsgroup
obs633	47.050435	1	obsgroup
obs634	54.344545	1	obsgroup
obs635	56.459292	1	obsgroup
obs636	58.120513	1	obsgroup
obs637	53.922609	1	obsgroup
obs638	49.294495	1	obsgroup
obs639	47.513208	1	obsgroup
obs640	58.390991	1	obsgroup
obs641	70.678378	1	obsgroup
obs642	87.590909	1	obsgroup
obs643	135.363964	1	obsgroup
obs644	134.922414	1	obsgroup
obs645	96.893043	1	obsgroup
obs646	86.377586	1	obsgroup
obs647	75.895536	1	obsgroup
obs648	102.881905	1	obsgroup
obs649	245.849558	1	obsgroup
obs650	208.455357	1	obsgroup
obs651	129.738739	1	obsgroup
obs652	105.627928	1	obsgroup
obs653	91.671296	1	obsgroup
obs654	87.109649	1	obsgroup
obs655	79.795690	1	obsgroup
obs656	73.256140	1	obsgroup
obs657	68.985345	1	obsgroup
obs658	66.609091	1	obsgroup
obs659	64.731579	1	obsgroup
obs660	62.625000	1	obsgroup
obs661	61.353097	1	obsgroup
obs662	58.788679	1	obsgroup
obs663	56.491892	1	obsgroup
obs664	55.341509	1	obsgroup
obs665	54.172881	1	obsgroup
obs666	55.909565	1	obsgroup
obs667	103.735652	1	obsgroup
obs668	110.466372	1	obsgroup
obs669	202.219298	1	obsgroup
obs670	139.587719	1	obsgroup
obs671	109.964286	1	obsgroup
obs672	120.016949	1	obsgroup
obs673	107.983051	1	obsgroup
obs674	99.766387	1	obsgroup
obs675	120.862069	1	obsgroup
obs676	108.034188	1	obsgroup
obs677	101.327103	1	obsgroup
obs678	98.216514	1	obsgroup
obs679	94.130973	1	obsgroup
obs680	90.755172	1	obsgroup
obs681	114.750000	1	obsgroup
obs682	192.208333	1	obsgroup
obs683	198.026786	1	obsgroup
obs684	276.280702	1	obsgroup
obs685	240.008475	1	obsgroup
obs686	1376.675439	1	obsgroup
obs687	1015.245763	1	obsgroup
obs688	587.263158	1	obsgroup
obs689	437.909091	1	obsgroup
obs690	458.408696	1	obsgroup
obs691	2340.422414	1	obsgroup
obs692	1928.547009	1	obsgroup
obs693	1532.966102	1	obsgroup
obs694	1593.706897	1	obsgroup
obs695	1086.348214	1	obsgroup
obs696	894.869159	1	obsgroup
obs697	963.724138	1	obsgroup
obs698	794.201754	1	obsgroup
obs699	740.362832	1	obsgroup
obs700	662.339286	1	obsgroup
obs701	572.315789	1	obsgroup
obs702	500.516667	1	obsgroup
obs703	441.649573	1	obsgroup
obs704	397.780702	1	obsgroup
obs705	362.378151	1	obsgroup
obs706	331.366972	1	obsgroup
obs707	306.642857	1	obsgroup
obs708	286.214286	1	obsgroup
obs709	267.096491	1	obsgroup
obs710	255.539130	1	obsgroup
obs711	241.558559	1	obsgroup
obs712	227.284404	1	obsgroup
obs713	219.282051	1	obsgroup
obs714	217.559322	1	obsgroup
obs715	206.134454	1	obsgroup
obs716	197.973684	1	obsgroup
obs717	194.504348	1	obsgroup
obs718	188.827586	1	obsgroup
obs719	181.539823	1	obsgroup
obs720	176.230088	1	obsgroup
obs721	169.276786	1	obsgroup
obs722	164.189189	1	obsgroup
obs723	159.747826	1	obsgroup
obs724	163.000000	1	obsgroup
obs725	174.050847	1	obsgroup
obs726	182.581197	1	obsgroup
obs727	4007.706897	1	obsgroup
obs728	5887.739130	1	obsgroup
obs729	0.000000	0	obsgroup
obs730	4205.338983	1	obsgroup
obs731	2215.478261	1	obsgroup
obs732	1570.168067	1	obsgroup
obs733	1210.608696	1	obsgroup
obs734	955.275229	1	obsgroup
obs735	930.863248	1	obsgroup
obs736	784.060870	1	obsgroup
obs737	680.974359	1	obsgroup
obs738	604.721739	1	obsgroup
obs739	545.731707	1	obsgroup
obs740	502.474576	1	obsgroup
obs741	455.811966	1	obsgroup
obs742	422.210526	1	obsgroup
obs743	395.230088	1	obsgroup
obs744	376.149123	1	obsgroup
obs745	366.666667	1	obsgroup
obs746	336.905172	1	obsgroup
obs747	345.422414	1	obsgroup
obs748	2825.728070	1	obsgroup
obs749	0.000000	0	obsgroup
obs750	0.000000	0	obsgroup
obs751	5782.604167	1	obsgroup
obs752	3281.979167	1	obsgroup
obs753	2311.355932	1	obsgroup
obs754	3900.892857	1	obsgroup
obs755	7031.869159	1	obsgroup
obs756	5770.630631	1	obsgroup
obs757	3386.481481	1	obsgroup
obs758	2173.490566	1	obsgroup
obs759	1719.714286	1	obsgroup
obs760	2345.818182	1	obsgroup
obs761	1755.826087	1	obsgroup
obs762	1559.545455	1	obsgroup
obs763	1329.829060	1	obsgroup
obs764	1105.178571	1	obsgroup
obs765	919.982906	1	obsgroup
obs766	775.651786	1	obsgroup
obs767	683.682243	1	obsgroup
obs768	613.064815	1	obsgroup
obs769	624.732143	1	obsgroup
obs770	806.637168	1	obsgroup
obs771	820.687500	1	obsgroup
obs772	1267.545455	1	obsgroup
obs773	1018.134454	1	obsgroup
obs774	833.426087	1	obsgroup
obs775	717.938053	1	obsgroup
obs776	634.182609	1	obsgroup
obs777	578.848739	1	obsgroup
obs778	587.410714	1	obsgroup
obs779	872.794643	1	obsgroup
obs780	750.805085	1	obsgroup
obs781	990.754545	1	obsgroup
obs782	2315.391304	1	obsgroup
obs783	3808.347826	1	obsgroup
obs784	3135.221239	1	obsgroup
obs785	1978.928571	1	obsgroup
obs786	1640.740741	1	obsgroup
obs787	1273.185841	1	obsgroup
obs788	1072.155172	1	obsgroup
obs789	931.725664	1	obsgroup
obs790	870.925926	1	obsgroup
obs791	790.557692	1	obsgroup
obs792	707.871560	1	obsgroup
obs793	740.900901	1	obsgroup
obs794	942.350877	1	obsgroup
obs795	1114.086957	1	obsgroup
obs796	1148.558559	1	obsgroup
obs797	909.133929	1	obsgroup
obs798	845.592593	1	obsgroup
obs799	979.238938	1	obsgroup
obs800	1022.500000	1	obsgroup
obs801	1240.089286	1	obsgroup
obs802	1162.336449	1	obsgroup
obs803	1797.216495	1	obsgroup
obs804	1497.812500	1	obsgroup
obs805	3888.043478	1	obsgroup
obs806	5572.164948	1	obsgroup
obs807	3213.302752	1	obsgroup
obs808	2209.652174	1	obsgroup
obs809	1642.477876	1	obsgroup
obs810	2330.545455	1	obsgroup
obs811	3696.226415	1	obsgroup
obs812	3933.762376	1	obsgroup
obs813	2433.125000	1	obsgroup
obs814	1920.373832	1	obsgroup
obs815	1776.875000	1	obsgroup
obs816	1530.360360	1	obsgroup
obs817	1368.316832	1	obsgroup
obs818	1460.550459	1	obsgroup
obs819	1832.293578	1	obsgroup
obs820	7266.818182	1	obsgroup
obs821	5884.956522	1	obsgroup
obs822	3741.203704	1	obsgroup
obs823	2544.587156	1	obsgroup
obs824	2028.070175	1	obsgroup
obs825	1716.250000	1	obsgroup
obs826	1442.192982	1	obsgroup
obs827	1223.364486	1	obsgroup
obs828	1052.339623	1	obsgroup
obs829	945.709091	1	obsgroup
obs830	925.258929	1	obsgroup
obs831	965.754545	1	obsgroup
obs832	1108.272727	1	obsgroup
obs833	1185.100000	1	obsgroup
obs834	1057.818966	1	obsgroup
obs835	951.971963	1	obsgroup
obs836	900.919643	1	obsgroup
obs837	1683.447619	1	obsgroup
obs838	2135.727273	1	obsgroup
obs839	2113.391304	1	obsgroup
obs840	2731.949153	1	obsgroup
obs841	3758.421053	1	obsgroup
obs842	2755.614035	1	obsgroup
obs843	2422.592593	1	obsgroup
obs844	2360.458716	1	obsgroup
obs845	2370.619469	1	obsgroup
obs846	1844.909091	1	obsgroup
obs847	2692.232143	1	obsgroup
obs848	2527.982456	1	obsgroup
obs849	2030.388350	1	obsgroup
obs850	1630.642202	1	obsgroup
obs851	2366.181818	1	obsgroup
obs852	2758.297872	1	obsgroup
obs853	2131.009174	1	obsgroup
obs854	2299.150943	1	obsgroup
obs855	2428.807339	1	obsgroup
obs856	2006.634615	1	obsgroup
obs857	1609.813084	1	obsgroup
obs858	1333.365385	1	obsgroup
obs859	1200.849057	1	obsgroup
obs860	1116.355140	1	obsgroup
obs861	952.697248	1	obsgroup
obs862	818.796296	1	obsgroup
obs863	738.439252	1	obsgroup
obs864	740.192982	1	obsgroup
obs865	805.009174	1	obsgroup
obs866	810.574074	1	obsgroup
obs867	746.740741	1	obsgroup
obs868	655.415094	1	obsgroup
obs869	568.066038	1	obsgroup
obs870	506.037736	1	obsgroup
obs871	467.229358	1	obsgroup
obs872	488.801802	1	obsgroup
obs873	651.615385	1	obsgroup
obs874	649.330435	1	obsgroup
obs875	924.407407	1	obsgroup
obs876	1100.017391	1	obsgroup
obs877	1046.125000	1	obsgroup
obs878	814.983193	1	obsgroup
obs879	0.000000	0	obsgroup
obs880	0.000000	0	obsgroup
obs881	541.394495	1	obsgroup
obs882	502.654545	1	obsgroup
obs883	482.973684	1	obsgroup
obs884	593.681034	1	obsgroup
obs885	498.425000	1	obsgroup
obs886	826.090909	1	obsgroup
obs887	1771.979167	1	obsgroup
obs888	1522.187500	1	obsgroup
obs889	1309.711538	1	obsgroup
obs890	1439.910714	1	obsgroup
obs891	1796.000000	1	obsgroup
obs892	1432.432432	1	obsgroup
obs893	1102.584071	1	obsgroup
obs894	912.766990	1	obsgroup
obs895	851.568807	1	obsgroup
obs896	732.219298	1	obsgroup
obs897	636.723214	1	obsgroup
obs898	570.061947	1	obsgroup
obs899	521.047619	1	obsgroup
obs900	522.834862	1	obsgroup
obs901	502.607477	1	obsgroup
obs902	445.543860	1	obsgroup
obs903	405.000000	1	obsgroup
obs904	389.245283	1	obsgroup
obs905	551.327103	1	obsgroup
obs906	562.225225	1	obsgroup
obs907	510.898148	1	obsgroup
obs908	630.768519	1	obsgroup
obs909	659.982759	1	obsgroup
obs910	568.833333	1	obsgroup
obs911	499.811966	1	obsgroup
obs912	462.785714	1	obsgroup
obs913	458.960000	1	obsgroup
obs914	410.895833	1	obsgroup
obs915	400.427083	1	obsgroup
obs916	377.636364	1	obsgroup
obs917	346.142857	1	obsgroup
obs918	319.947917	1	obsgroup
obs919	297.583333	1	obsgroup
obs920	277.218750	1	obsgroup
obs921	258.885417	1	obsgroup
obs922	241.656250	1	obsgroup
obs923	228.239583	1	obsgroup
obs924	216.187500	1	obsgroup
obs925	208.250000	1	obsgroup
obs926	197.406250	1	obsgroup
obs927	190.406250	1	obsgroup
obs928	186.937500	1	obsgroup
obs929	183.099010	1	obsgroup
obs930	180.705882	1	obsgroup
obs931	176.617647	1	obsgroup
obs932	169.861111	1	obsgroup
obs933	161.685714	1	obsgroup
obs934	154.396226	1	obsgroup
obs935	152.851852	1	obsgroup
obs936	145.138889	1	obsgroup
obs937	140.074074	1	obsgroup
obs938	0.000000	0	obsgroup
obs939	131.818182	1	obsgroup
obs940	129.110092	1	obsgroup
obs941	123.907407	1	obsgroup