pcf
* control data
restart  estimation
    8  3287     8     0     1
    1     1 single point   1   0   0
  5.0   2.0   0.3  0.03    10  999  lamforgive  derforgive
  3.0   3.0 0.001  0
  0.1
   30  0.01     3     3  0.01     3
    1     1     1     1
* parameter groups
fc           relative 0.01  0.0  switch  2.0 parabolic
beta         relative 0.01  0.0  switch  2.0 parabolic
perc         relative 0.01  0.0  switch  2.0 parabolic
uzl          relative 0.01  0.0  switch  2.0 parabolic
k0           relative 0.01  0.0  switch  2.0 parabolic
k1           relative 0.01  0.0  switch  2.0 parabolic
k2           relative 0.01  0.0  switch  2.0 parabolic
et_mult      relative 0.01  0.0  switch  2.0 parabolic
* parameter data
fc           none relative   391.659      50.000000  600.000000      fc              1.0000        0.0000      1
beta         none relative   2.49585      1.000000    6.000000       beta            1.0000        0.0000      1
perc         none relative   0.19992      0.000100    0.500000       perc            1.0000        0.0000      1
uzl          none relative   2.088        0.100000   75.000000       uzl             1.0000        0.0000      1
k0           none relative   0.592536     0.050000    0.700000       k0              1.0000        0.0000      1
k1           none relative   0.294571     0.010000    0.400000       k1              1.0000        0.0000      1
k2           none relative   0.005459	  0.000100    0.150000       k2              1.0000        0.0000      1
et_mult      none relative   1            0.100000    10.00000       et_mult         1.0000        0.0000      1
* observation groups
obsgroup
* observation data
obs1	1129.250000	1	obsgroup
obs2	930.052083	1	obsgroup
obs3	633.291667	1	obsgroup
obs4	462.770833	1	obsgroup
obs5	373.312500	1	obsgroup
obs6	400.312500	1	obsgroup
obs7	387.208333	1	obsgroup
obs8	351.552083	1	obsgroup
obs9	329.864583	1	obsgroup
obs10	285.031250	1	obsgroup
obs11	258.447917	1	obsgroup
obs12	358.333333	1	obsgroup
obs13	555.520833	1	obsgroup
obs14	844.739583	1	obsgroup
obs15	640.593750	1	obsgroup
obs16	782.302083	1	obsgroup
obs17	766.770833	1	obsgroup
obs18	720.239583	1	obsgroup
obs19	635.572917	1	obsgroup
obs20	520.447917	1	obsgroup
obs21	440.125000	1	obsgroup
obs22	377.343750	1	obsgroup
obs23	320.031250	1	obsgroup
obs24	281.145833	1	obsgroup
obs25	314.843750	1	obsgroup
obs26	289.802083	1	obsgroup
obs27	258.229167	1	obsgroup
obs28	235.062500	1	obsgroup
obs29	218.572917	1	obsgroup
obs30	210.666667	1	obsgroup
obs31	224.343750	1	obsgroup
obs32	216.333333	1	obsgroup
obs33	253.104167	1	obsgroup
obs34	314.072917	1	obsgroup
obs35	378.312500	1	obsgroup
obs36	385.052083	1	obsgroup
obs37	344.489583	1	obsgroup
obs38	318.385417	1	obsgroup
obs39	283.083333	1	obsgroup
obs40	257.854167	1	obsgroup
obs41	239.364583	1	obsgroup
obs42	255.333333	1	obsgroup
obs43	414.875000	1	obsgroup
obs44	474.270833	1	obsgroup
obs45	432.864583	1	obsgroup
obs46	384.364583	1	obsgroup
obs47	363.947917	1	obsgroup
obs48	328.989583	1	obsgroup
obs49	303.739583	1	obsgroup
obs50	278.500000	1	obsgroup
obs51	252.937500	1	obsgroup
obs52	229.125000	1	obsgroup
obs53	209.885417	1	obsgroup
obs54	208.197917	1	obsgroup
obs55	311.125000	1	obsgroup
obs56	362.395833	1	obsgroup
obs57	424.656250	1	obsgroup
obs58	536.864583	1	obsgroup
obs59	445.885417	1	obsgroup
obs60	368.010417	1	obsgroup
obs61	322.031250	1	obsgroup
obs62	303.020833	1	obsgroup
obs63	272.593750	1	obsgroup
obs64	241.177083	1	obsgroup
obs65	221.437500	1	obsgroup
obs66	208.479167	1	obsgroup
obs67	197.562500	1	obsgroup
obs68	184.937500	1	obsgroup
obs69	194.802083	1	obsgroup
obs70	202.916667	1	obsgroup
obs71	483.583333	1	obsgroup
obs72	569.968750	1	obsgroup
obs73	451.097826	1	obsgroup
obs74	372.604167	1	obsgroup
obs75	317.260417	1	obsgroup
obs76	272.635417	1	obsgroup
obs77	241.552083	1	obsgroup
obs78	221.843750	1	obsgroup
obs79	208.562500	1	obsgroup
obs80	197.281250	1	obsgroup
obs81	190.604167	1	obsgroup
obs82	179.302083	1	obsgroup
obs83	171.083333	1	obsgroup
obs84	239.395833	1	obsgroup
obs85	641.750000	1	obsgroup
obs86	655.062500	1	obsgroup
obs87	494.666667	1	obsgroup
obs88	811.583333	1	obsgroup
obs89	1545.520833	1	obsgroup
obs90	1551.041667	1	obsgroup
obs91	977.229167	1	obsgroup
obs92	784.593750	1	obsgroup
obs93	848.916667	1	obsgroup
obs94	729.250000	1	obsgroup
obs95	654.947917	1	obsgroup
obs96	801.791667	1	obsgroup
obs97	758.489583	1	obsgroup
obs98	654.312500	1	obsgroup
obs99	547.697917	1	obsgroup
obs100	484.906250	1	obsgroup
obs101	488.010417	1	obsgroup
obs102	468.864583	1	obsgroup
obs103	430.312500	1	obsgroup
obs104	387.760417	1	obsgroup
obs105	377.010417	1	obsgroup
obs106	339.947917	1	obsgroup
obs107	311.729167	1	obsgroup
obs108	287.812500	1	obsgroup
obs109	269.875000	1	obsgroup
obs110	271.750000	1	obsgroup
obs111	254.562500	1	obsgroup
obs112	229.062500	1	obsgroup
obs113	214.552083	1	obsgroup
obs114	203.166667	1	obsgroup
obs115	192.906250	1	obsgroup
obs116	190.822917	1	obsgroup
obs117	386.177083	1	obsgroup
obs118	447.156250	1	obsgroup
obs119	428.614583	1	obsgroup
obs120	357.687500	1	obsgroup
obs121	307.385417	1	obsgroup
obs122	269.250000	1	obsgroup
obs123	256.520833	1	obsgroup
obs124	237.937500	1	obsgroup
obs125	216.593750	1	obsgroup
obs126	203.270833	1	obsgroup
obs127	193.583333	1	obsgroup
obs128	185.572917	1	obsgroup
obs129	178.520833	1	obsgroup
obs130	180.177083	1	obsgroup
obs131	171.822917	1	obsgroup
obs132	160.729167	1	obsgroup
obs133	155.833333	1	obsgroup
obs134	149.718750	1	obsgroup
obs135	145.000000	1	obsgroup
obs136	141.270833	1	obsgroup
obs137	138.750000	1	obsgroup
obs138	138.125000	1	obsgroup
obs139	137.968750	1	obsgroup
obs140	159.333333	1	obsgroup
obs141	169.479167	1	obsgroup
obs142	188.072917	1	obsgroup
obs143	183.843750	1	obsgroup
obs144	165.812500	1	obsgroup
obs145	155.239583	1	obsgroup
obs146	176.093750	1	obsgroup
obs147	171.416667	1	obsgroup
obs148	163.531250	1	obsgroup
obs149	150.270833	1	obsgroup
obs150	143.270833	1	obsgroup
obs151	142.885417	1	obsgroup
obs152	139.552083	1	obsgroup
obs153	230.385417	1	obsgroup
obs154	397.177083	1	obsgroup
obs155	542.250000	1	obsgroup
obs156	522.906250	1	obsgroup
obs157	364.427083	1	obsgroup
obs158	286.677083	1	obsgroup
obs159	227.593750	1	obsgroup
obs160	212.385417	1	obsgroup
obs161	217.583333	1	obsgroup
obs162	189.708333	1	obsgroup
obs163	168.718750	1	obsgroup
obs164	155.166667	1	obsgroup
obs165	142.854167	1	obsgroup
obs166	135.500000	1	obsgroup
obs167	130.208333	1	obsgroup
obs168	125.760417	1	obsgroup
obs169	120.916667	1	obsgroup
obs170	116.583333	1	obsgroup
obs171	116.208333	1	obsgroup
obs172	109.854167	1	obsgroup
obs173	104.531250	1	obsgroup
obs174	99.667708	1	obsgroup
obs175	96.000000	1	obsgroup
obs176	92.197917	1	obsgroup
obs177	90.460417	1	obsgroup
obs178	88.188542	1	obsgroup
obs179	83.171875	1	obsgroup
obs180	81.201042	1	obsgroup
obs181	79.734375	1	obsgroup
obs182	78.138542	1	obsgroup
obs183	77.130208	1	obsgroup
obs184	76.693750	1	obsgroup
obs185	74.391667	1	obsgroup
obs186	71.097917	1	obsgroup
obs187	69.025000	1	obsgroup
obs188	65.802083	1	obsgroup
obs189	62.853125	1	obsgroup
obs190	61.328125	1	obsgroup
obs191	58.768750	1	obsgroup
obs192	57.381250	1	obsgroup
obs193	56.246875	1	obsgroup
obs194	55.135417	1	obsgroup
obs195	54.739583	1	obsgroup
obs196	52.257292	1	obsgroup
obs197	51.152083	1	obsgroup
obs198	51.160417	1	obsgroup
obs199	49.675000	1	obsgroup
obs200	50.107292	1	obsgroup
obs201	49.325000	1	obsgroup
obs202	47.733333	1	obsgroup
obs203	46.558333	1	obsgroup
obs204	45.816667	1	obsgroup
obs205	44.391667	1	obsgroup
obs206	42.742708	1	obsgroup
obs207	41.312500	1	obsgroup
obs208	39.023958	1	obsgroup
obs209	38.438542	1	obsgroup
obs210	37.335417	1	obsgroup
obs211	36.183333	1	obsgroup
obs212	35.993750	1	obsgroup
obs213	36.387500	1	obsgroup
obs214	37.178125	1	obsgroup
obs215	35.818750	1	obsgroup
obs216	33.454167	1	obsgroup
obs217	32.726042	1	obsgroup
obs218	30.970833	1	obsgroup
obs219	31.223958	1	obsgroup
obs220	30.821875	1	obsgroup
obs221	30.966667	1	obsgroup
obs222	31.541667	1	obsgroup
obs223	31.827083	1	obsgroup
obs224	28.119792	1	obsgroup
obs225	26.921875	1	obsgroup
obs226	25.075000	1	obsgroup
obs227	24.393750	1	obsgroup
obs228	24.937500	1	obsgroup
obs229	24.242708	1	obsgroup
obs230	24.559375	1	obsgroup
obs231	24.458333	1	obsgroup
obs232	24.193750	1	obsgroup
obs233	22.992708	1	obsgroup
obs234	22.655208	1	obsgroup
obs235	22.216667	1	obsgroup
obs236	21.320833	1	obsgroup
obs237	19.472917	1	obsgroup
obs238	18.367708	1	obsgroup
obs239	18.663542	1	obsgroup
obs240	19.738542	1	obsgroup
obs241	20.013542	1	obsgroup
obs242	31.538542	1	obsgroup
obs243	41.533333	1	obsgroup
obs244	29.796875	1	obsgroup
obs245	28.291667	1	obsgroup
obs246	25.626042	1	obsgroup
obs247	23.133333	1	obsgroup
obs248	22.680208	1	obsgroup
obs249	21.753125	1	obsgroup
obs250	22.260417	1	obsgroup
obs251	28.887500	1	obsgroup
obs252	27.600000	1	obsgroup
obs253	24.964583	1	obsgroup
obs254	23.804167	1	obsgroup
obs255	23.831250	1	obsgroup
obs256	22.144792	1	obsgroup
obs257	22.233333	1	obsgroup
obs258	21.141667	1	obsgroup
obs259	22.978125	1	obsgroup
obs260	24.039583	1	obsgroup
obs261	32.311458	1	obsgroup
obs262	42.512500	1	obsgroup
obs263	42.867708	1	obsgroup
obs264	35.476042	1	obsgroup
obs265	29.784375	1	obsgroup
obs266	26.916667	1	obsgroup
obs267	26.062500	1	obsgroup
obs268	25.710417	1	obsgroup
obs269	24.322917	1	obsgroup
obs270	23.586458	1	obsgroup
obs271	23.612500	1	obsgroup
obs272	21.934375	1	obsgroup
obs273	21.523958	1	obsgroup
obs274	21.369792	1	obsgroup
obs275	21.650000	1	obsgroup
obs276	21.973958	1	obsgroup
obs277	22.306250	1	obsgroup
obs278	21.625000	1	obsgroup
obs279	20.612500	1	obsgroup
obs280	20.976042	1	obsgroup
obs281	21.283333	1	obsgroup
obs282	25.833333	1	obsgroup
obs283	38.311458	1	obsgroup
obs284	39.091667	1	obsgroup
obs285	31.686458	1	obsgroup
obs286	27.948958	1	obsgroup
obs287	26.177083	1	obsgroup
obs288	25.018750	1	obsgroup
obs289	23.437500	1	obsgroup
obs290	23.606250	1	obsgroup
obs291	23.362500	1	obsgroup
obs292	23.137500	1	obsgroup
obs293	23.568750	1	obsgroup
obs294	23.600000	1	obsgroup
obs295	24.193750	1	obsgroup
obs296	26.029167	1	obsgroup
obs297	113.021875	1	obsgroup
obs298	143.010417	1	obsgroup
obs299	207.822917	1	obsgroup
obs300	109.855208	1	obsgroup
obs301	86.559375	1	obsgroup
obs302	85.245833	1	obsgroup
obs303	71.432292	1	obsgroup
obs304	77.576042	1	obsgroup
obs305	74.608333	1	obsgroup
obs306	74.105208	1	obsgroup
obs307	74.657292	1	obsgroup
obs308	65.369792	1	obsgroup
obs309	59.476042	1	obsgroup
obs310	56.691667	1	obsgroup
obs311	111.427083	1	obsgroup
obs312	127.843750	1	obsgroup
obs313	111.656250	1	obsgroup
obs314	145.781250	1	obsgroup
obs315	132.000000	1	obsgroup
obs316	101.360417	1	obsgroup
obs317	86.764583	1	obsgroup
obs318	83.378125	1	obsgroup
obs319	77.450000	1	obsgroup
obs320	72.868750	1	obsgroup
obs321	72.046875	1	obsgroup
obs322	358.396875	1	obsgroup
obs323	392.739583	1	obsgroup
obs324	309.093750	1	obsgroup
obs325	254.052083	1	obsgroup
obs326	254.447917	1	obsgroup
obs327	469.989583	1	obsgroup
obs328	331.270833	1	obsgroup
obs329	220.875000	1	obsgroup
obs330	179.875000	1	obsgroup
obs331	261.864583	1	obsgroup
obs332	285.510417	1	obsgroup
obs333	229.187500	1	obsgroup
obs334	248.208333	1	obsgroup
obs335	856.614583	1	obsgroup
obs336	696.770833	1	obsgroup
obs337	448.875000	1	obsgroup
obs338	325.041667	1	obsgroup
obs339	250.791667	1	obsgroup
obs340	206.843750	1	obsgroup
obs341	178.260417	1	obsgroup
obs342	247.270833	1	obsgroup
obs343	538.802083	1	obsgroup
obs344	995.166667	1	obsgroup
obs345	869.062500	1	obsgroup
obs346	1037.302083	1	obsgroup
obs347	874.947917	1	obsgroup
obs348	1076.718750	1	obsgroup
obs349	1044.593750	1	obsgroup
obs350	747.187500	1	obsgroup
obs351	569.906250	1	obsgroup
obs352	532.395833	1	obsgroup
obs353	625.041667	1	obsgroup
obs354	693.291667	1	obsgroup
obs355	709.635417	1	obsgroup
obs356	578.708333	1	obsgroup
obs357	466.989583	1	obsgroup
obs358	393.739583	1	obsgroup
obs359	350.687500	1	obsgroup
obs360	397.687500	1	obsgroup
obs361	511.145833	1	obsgroup
obs362	921.697917	1	obsgroup
obs363	1954.166667	1	obsgroup
obs364	1390.416667	1	obsgroup
obs365	909.281250	1	obsgroup
obs366	704.229167	1	obsgroup
obs367	567.697917	1	obsgroup
obs368	477.458333	1	obsgroup
obs369	411.531250	1	obsgroup
obs370	364.354167	1	obsgroup
obs371	325.072917	1	obsgroup
obs372	292.083333	1	obsgroup
obs373	271.552083	1	obsgroup
obs374	249.979167	1	obsgroup
obs375	228.322917	1	obsgroup
obs376	212.156250	1	obsgroup
obs377	238.125000	1	obsgroup
obs378	370.208333	1	obsgroup
obs379	541.229167	1	obsgroup
obs380	469.458333	1	obsgroup
obs381	946.270833	1	obsgroup
obs382	1163.218750	1	obsgroup
obs383	808.697917	1	obsgroup
obs384	653.239583	1	obsgroup
obs385	530.760417	1	obsgroup
obs386	466.041667	1	obsgroup
obs387	416.427083	1	obsgroup
obs388	372.562500	1	obsgroup
obs389	336.656250	1	obsgroup
obs390	303.656250	1	obsgroup
obs391	276.156250	1	obsgroup
obs392	0.000000	0	obsgroup
obs393	240.125000	1	obsgroup
obs394	228.854167	1	obsgroup
obs395	214.281250	1	obsgroup
obs396	198.958333	1	obsgroup
obs397	186.333333	1	obsgroup
obs398	175.104167	1	obsgroup
obs399	167.927083	1	obsgroup
obs400	162.260417	1	obsgroup
obs401	157.885417	1	obsgroup
obs402	153.468750	1	obsgroup
obs403	152.510417	1	obsgroup
obs404	154.010417	1	obsgroup
obs405	146.572917	1	obsgroup
obs406	141.104167	1	obsgroup
obs407	138.510417	1	obsgroup
obs408	136.197917	1	obsgroup
obs409	178.020833	1	obsgroup
obs410	177.718750	1	obsgroup
obs411	689.333333	1	obsgroup
obs412	1008.875000	1	obsgroup
obs413	672.229167	1	obsgroup
obs414	493.572917	1	obsgroup
obs415	410.281250	1	obsgroup
obs416	339.791667	1	obsgroup
obs417	295.687500	1	obsgroup
obs418	270.718750	1	obsgroup
obs419	267.052083	1	obsgroup
obs420	294.854167	1	obsgroup
obs421	281.364583	1	obsgroup
obs422	252.260417	1	obsgroup
obs423	240.625000	1	obsgroup
obs424	517.781250	1	obsgroup
obs425	0.000000	0	obsgroup
obs426	0.000000	0	obsgroup
obs427	816.177083	1	obsgroup
obs428	646.989583	1	obsgroup
obs429	781.895833	1	obsgroup
obs430	706.729167	1	obsgroup
obs431	585.312500	1	obsgroup
obs432	580.312500	1	obsgroup
obs433	609.989583	1	obsgroup
obs434	778.250000	1	obsgroup
obs435	901.750000	1	obsgroup
obs436	705.968750	1	obsgroup
obs437	611.934783	1	obsgroup
obs438	707.125000	1	obsgroup
obs439	725.468750	1	obsgroup
obs440	1017.187500	1	obsgroup
obs441	1128.750000	1	obsgroup
obs442	901.406250	1	obsgroup
obs443	735.822917	1	obsgroup
obs444	630.770833	1	obsgroup
obs445	553.937500	1	obsgroup
obs446	478.718750	1	obsgroup
obs447	425.395833	1	obsgroup
obs448	403.197917	1	obsgroup
obs449	398.927083	1	obsgroup
obs450	418.010417	1	obsgroup
obs451	520.333333	1	obsgroup
obs452	763.750000	1	obsgroup
obs453	718.395833	1	obsgroup
obs454	745.020833	1	obsgroup
obs455	658.291667	1	obsgroup
obs456	557.604167	1	obsgroup
obs457	495.385417	1	obsgroup
obs458	433.260417	1	obsgroup
obs459	386.875000	1	obsgroup
obs460	379.000000	1	obsgroup
obs461	376.093750	1	obsgroup
obs462	405.062500	1	obsgroup
obs463	369.562500	1	obsgroup
obs464	334.135417	1	obsgroup
obs465	304.583333	1	obsgroup
obs466	295.250000	1	obsgroup
obs467	271.104167	1	obsgroup
obs468	263.218750	1	obsgroup
obs469	285.031250	1	obsgroup
obs470	346.322917	1	obsgroup
obs471	483.270833	1	obsgroup
obs472	491.593750	1	obsgroup
obs473	428.697917	1	obsgroup
obs474	362.666667	1	obsgroup
obs475	319.927083	1	obsgroup
obs476	287.260417	1	obsgroup
obs477	259.052083	1	obsgroup
obs478	243.177083	1	obsgroup
obs479	235.520833	1	obsgroup
obs480	291.343750	1	obsgroup
obs481	386.739583	1	obsgroup
obs482	381.208333	1	obsgroup
obs483	333.906250	1	obsgroup
obs484	335.885417	1	obsgroup
obs485	322.062500	1	obsgroup
obs486	291.791667	1	obsgroup
obs487	268.020833	1	obsgroup
obs488	242.958333	1	obsgroup
obs489	221.583333	1	obsgroup
obs490	209.849462	1	obsgroup
obs491	201.354167	1	obsgroup
obs492	197.979167	1	obsgroup
obs493	190.854167	1	obsgroup
obs494	181.468750	1	obsgroup
obs495	170.822917	1	obsgroup
obs496	164.364583	1	obsgroup
obs497	161.177083	1	obsgroup
obs498	151.802083	1	obsgroup
obs499	149.802083	1	obsgroup
obs500	148.885417	1	obsgroup
obs501	145.729167	1	obsgroup
obs502	144.927083	1	obsgroup
obs503	190.937500	1	obsgroup
obs504	149.281250	1	obsgroup
obs505	134.635417	1	obsgroup
obs506	129.687500	1	obsgroup
obs507	125.218750	1	obsgroup
obs508	122.052083	1	obsgroup
obs509	126.927083	1	obsgroup
obs510	136.604167	1	obsgroup
obs511	136.968750	1	obsgroup
obs512	164.312500	1	obsgroup
obs513	164.927083	1	obsgroup
obs514	153.781250	1	obsgroup
obs515	142.375000	1	obsgroup
obs516	155.937500	1	obsgroup
obs517	149.916667	1	obsgroup
obs518	172.697917	1	obsgroup
obs519	157.489583	1	obsgroup
obs520	141.520833	1	obsgroup
obs521	120.378947	1	obsgroup
obs522	113.468750	1	obsgroup
obs523	109.385417	1	obsgroup
obs524	0.000000	0	obsgroup
obs525	103.750000	1	obsgroup
obs526	100.072917	1	obsgroup
obs527	98.121875	1	obsgroup
obs528	97.270833	1	obsgroup
obs529	106.531250	1	obsgroup
obs530	95.967708	1	obsgroup
obs531	88.006316	1	obsgroup
obs532	0.000000	0	obsgroup
obs533	0.000000	0	obsgroup
obs534	76.096875	1	obsgroup
obs535	76.003125	1	obsgroup
obs536	73.813542	1	obsgroup
obs537	71.670833	1	obsgroup
obs538	69.347917	1	obsgroup
obs539	66.718750	1	obsgroup
obs540	65.127083	1	obsgroup
obs541	62.280208	1	obsgroup
obs542	60.256250	1	obsgroup
obs543	63.562500	1	obsgroup
obs544	66.876042	1	obsgroup
obs545	67.251042	1	obsgroup
obs546	64.260417	1	obsgroup
obs547	61.684375	1	obsgroup
obs548	58.806250	1	obsgroup
obs549	56.115625	1	obsgroup
obs550	55.468750	1	obsgroup
obs551	54.063542	1	obsgroup
obs552	51.043750	1	obsgroup
obs553	49.300000	1	obsgroup
obs554	48.433333	1	obsgroup
obs555	47.000000	1	obsgroup
obs556	46.783333	1	obsgroup
obs557	45.358333	1	obsgroup
obs558	47.016667	1	obsgroup
obs559	49.309375	1	obsgroup
obs560	47.991667	1	obsgroup
obs561	44.671875	1	obsgroup
obs562	49.441667	1	obsgroup
obs563	53.553125	1	obsgroup
obs564	56.987500	1	obsgroup
obs565	52.548958	1	obsgroup
obs566	47.933333	1	obsgroup
obs567	45.016667	1	obsgroup
obs568	43.750000	1	obsgroup
obs569	41.404167	1	obsgroup
obs570	39.065625	1	obsgroup
obs571	37.145833	1	obsgroup
obs572	37.109375	1	obsgroup
obs573	36.803125	1	obsgroup
obs574	35.417708	1	obsgroup
obs575	33.168750	1	obsgroup
obs576	32.637500	1	obsgroup
obs577	31.739583	1	obsgroup
obs578	31.111458	1	obsgroup
obs579	29.963542	1	obsgroup
obs580	29.506250	1	obsgroup
obs581	28.511458	1	obsgroup
obs582	28.997917	1	obsgroup
obs583	29.143750	1	obsgroup
obs584	27.982292	1	obsgroup
obs585	27.035417	1	obsgroup
obs586	27.731250	1	obsgroup
obs587	26.367708	1	obsgroup
obs588	24.314583	1	obsgroup
obs589	24.405208	1	obsgroup
obs590	23.712500	1	obsgroup
obs591	25.406250	1	obsgroup
obs592	24.493750	1	obsgroup
obs593	21.810417	1	obsgroup
obs594	20.666667	1	obsgroup
obs595	19.553125	1	obsgroup
obs596	19.693750	1	obsgroup
obs597	19.072917	1	obsgroup
obs598	19.035417	1	obsgroup
obs599	19.004167	1	obsgroup
obs600	17.661458	1	obsgroup
obs601	17.417708	1	obsgroup
obs602	16.860417	1	obsgroup
obs603	17.642708	1	obsgroup
obs604	18.097917	1	obsgroup
obs605	16.276042	1	obsgroup
obs606	17.065625	1	obsgroup
obs607	16.346875	1	obsgroup
obs608	16.704167	1	obsgroup
obs609	15.965625	1	obsgroup
obs610	15.231250	1	obsgroup
obs611	15.014583	1	obsgroup
obs612	14.923958	1	obsgroup
obs613	14.286458	1	obsgroup
obs614	12.398958	1	obsgroup
obs615	12.300000	1	obsgroup
obs616	12.229167	1	obsgroup
obs617	11.664583	1	obsgroup
obs618	11.570833	1	obsgroup
obs619	12.537500	1	obsgroup
obs620	12.158333	1	obsgroup
obs621	12.811458	1	obsgroup
obs622	15.052083	1	obsgroup
obs623	15.582292	1	obsgroup
obs624	13.563542	1	obsgroup
obs625	13.389583	1	obsgroup
obs626	14.807292	1	obsgroup
obs627	13.301042	1	obsgroup
obs628	13.085417	1	obsgroup
obs629	12.918750	1	obsgroup
obs630	11.947917	1	obsgroup
obs631	12.136458	1	obsgroup
obs632	12.264583	1	obsgroup
obs633	13.157292	1	obsgroup
obs634	17.938542	1	obsgroup
obs635	17.447917	1	obsgroup
obs636	16.514583	1	obsgroup
obs637	15.392708	1	obsgroup
obs638	14.408333	1	obsgroup
obs639	14.850000	1	obsgroup
obs640	21.663542	1	obsgroup
obs641	29.982292	1	obsgroup
obs642	36.197917	1	obsgroup
obs643	39.957292	1	obsgroup
obs644	31.512500	1	obsgroup
obs645	25.691667	1	obsgroup
obs646	24.662500	1	obsgroup
obs647	23.871875	1	obsgroup
obs648	29.354167	1	obsgroup
obs649	43.465625	1	obsgroup
obs650	41.101042	1	obsgroup
obs651	30.233333	1	obsgroup
obs652	26.034375	1	obsgroup
obs653	24.368750	1	obsgroup
obs654	23.536458	1	obsgroup
obs655	22.855208	1	obsgroup
obs656	21.723958	1	obsgroup
obs657	21.937500	1	obsgroup
obs658	22.000000	1	obsgroup
obs659	21.973958	1	obsgroup
obs660	21.572917	1	obsgroup
obs661	21.500000	1	obsgroup
obs662	20.316667	1	obsgroup
obs663	18.920833	1	obsgroup
obs664	18.972917	1	obsgroup
obs665	20.507292	1	obsgroup
obs666	21.616667	1	obsgroup
obs667	25.026042	1	obsgroup
obs668	29.162500	1	obsgroup
obs669	27.603125	1	obsgroup
obs670	26.288542	1	obsgroup
obs671	24.213542	1	obsgroup
obs672	31.627083	1	obsgroup
obs673	35.106250	1	obsgroup
obs674	31.209375	1	obsgroup
obs675	39.414583	1	obsgroup
obs676	36.589583	1	obsgroup
obs677	32.568750	1	obsgroup
obs678	31.125000	1	obsgroup
obs679	29.891667	1	obsgroup
obs680	28.756250	1	obsgroup
obs681	30.334375	1	obsgroup
obs682	33.445833	1	obsgroup
obs683	35.446875	1	obsgroup
obs684	33.018750	1	obsgroup
obs685	33.639583	1	obsgroup
obs686	79.262500	1	obsgroup
obs687	124.760417	1	obsgroup
obs688	104.071875	1	obsgroup
obs689	79.987500	1	obsgroup
obs690	64.482292	1	obsgroup
obs691	226.903125	1	obsgroup
obs692	329.895833	1	obsgroup
obs693	316.302083	1	obsgroup
obs694	184.937500	1	obsgroup
obs695	124.916667	1	obsgroup
obs696	92.937500	1	obsgroup
obs697	99.735417	1	obsgroup
obs698	89.898958	1	obsgroup
obs699	79.260417	1	obsgroup
obs700	70.264211	1	obsgroup
obs701	63.652083	1	obsgroup
obs702	59.032292	1	obsgroup
obs703	55.571875	1	obsgroup
obs704	52.878125	1	obsgroup
obs705	50.437500	1	obsgroup
obs706	48.375000	1	obsgroup
obs707	47.133333	1	obsgroup
obs708	45.891667	1	obsgroup
obs709	44.675000	1	obsgroup
obs710	43.691667	1	obsgroup
obs711	42.541667	1	obsgroup
obs712	41.941667	1	obsgroup
obs713	40.841667	1	obsgroup
obs714	41.764583	1	obsgroup
obs715	41.464583	1	obsgroup
obs716	40.592708	1	obsgroup
obs717	39.929167	1	obsgroup
obs718	39.250000	1	obsgroup
obs719	38.370833	1	obsgroup
obs720	37.262500	1	obsgroup
obs721	36.591667	1	obsgroup
obs722	40.772917	1	obsgroup
obs723	30.251042	1	obsgroup
obs724	35.427083	1	obsgroup
obs725	41.858333	1	obsgroup
obs726	41.080208	1	obsgroup
obs727	413.598958	1	obsgroup
obs728	1477.291667	1	obsgroup
obs729	2193.229167	1	obsgroup
obs730	1858.406250	1	obsgroup
obs731	715.677083	1	obsgroup
obs732	455.427083	1	obsgroup
obs733	350.354167	1	obsgroup
obs734	254.614583	1	obsgroup
obs735	231.968750	1	obsgroup
obs736	200.750000	1	obsgroup
obs737	174.635417	1	obsgroup
obs738	153.885417	1	obsgroup
obs739	140.479167	1	obsgroup
obs740	134.708333	1	obsgroup
obs741	123.322917	1	obsgroup
obs742	115.708333	1	obsgroup
obs743	108.729167	1	obsgroup
obs744	104.583333	1	obsgroup
obs745	108.520833	1	obsgroup
obs746	108.572917	1	obsgroup
obs747	186.666667	1	obsgroup
obs748	0.000000	0	obsgroup
obs749	0.000000	0	obsgroup
obs750	4257.083333	1	obsgroup
obs751	3069.687500	1	obsgroup
obs752	2081.875000	1	obsgroup
obs753	1328.020833	1	obsgroup
obs754	1195.947917	1	obsgroup
obs755	2599.062500	1	obsgroup
obs756	1556.041667	1	obsgroup
obs757	966.343750	1	obsgroup
obs758	742.760417	1	obsgroup
obs759	621.729167	1	obsgroup
obs760	623.760417	1	obsgroup
obs761	518.708333	1	obsgroup
obs762	498.687500	1	obsgroup
obs763	437.572917	1	obsgroup
obs764	399.625000	1	obsgroup
obs765	363.270833	1	obsgroup
obs766	330.812500	1	obsgroup
obs767	306.697917	1	obsgroup
obs768	287.635417	1	obsgroup
obs769	280.020833	1	obsgroup
obs770	290.187500	1	obsgroup
obs771	275.593750	1	obsgroup
obs772	295.718750	1	obsgroup
obs773	272.197917	1	obsgroup
obs774	277.031250	1	obsgroup
obs775	263.281250	1	obsgroup
obs776	253.104167	1	obsgroup
obs777	234.354167	1	obsgroup
obs778	231.250000	1	obsgroup
obs779	252.187500	1	obsgroup
obs780	245.885417	1	obsgroup
obs781	271.916667	1	obsgroup
obs782	281.187500	1	obsgroup
obs783	287.479167	1	obsgroup
obs784	301.489583	1	obsgroup
obs785	285.250000	1	obsgroup
obs786	401.989583	1	obsgroup
obs787	453.656250	1	obsgroup
obs788	419.062500	1	obsgroup
obs789	381.802083	1	obsgroup
obs790	594.729167	1	obsgroup
obs791	874.187500	1	obsgroup
obs792	806.927083	1	obsgroup
obs793	641.593750	1	obsgroup
obs794	561.916667	1	obsgroup
obs795	503.687500	1	obsgroup
obs796	469.918367	1	obsgroup
obs797	404.427083	1	obsgroup
obs798	358.614583	1	obsgroup
obs799	326.135417	1	obsgroup
obs800	304.500000	1	obsgroup
obs801	343.152174	1	obsgroup
obs802	355.729167	1	obsgroup
obs803	790.593750	1	obsgroup
obs804	838.687500	1	obsgroup
obs805	1066.593750	1	obsgroup
obs806	2159.791667	1	obsgroup
obs807	1861.979167	1	obsgroup
obs808	1329.791667	1	obsgroup
obs809	933.718750	1	obsgroup
obs810	773.395833	1	obsgroup
obs811	961.156250	1	obsgroup
obs812	1179.895833	1	obsgroup
obs813	1176.875000	1	obsgroup
obs814	1073.541667	1	obsgroup
obs815	985.187500	1	obsgroup
obs816	959.708333	1	obsgroup
obs817	830.010417	1	obsgroup
obs818	760.614583	1	obsgroup
obs819	821.197917	1	obsgroup
obs820	3084.375000	1	obsgroup
obs821	4033.541667	1	obsgroup
obs822	2795.312500	1	obsgroup
obs823	1913.229167	1	obsgroup
obs824	1312.291667	1	obsgroup
obs825	1017.687500	1	obsgroup
obs826	871.760417	1	obsgroup
obs827	731.666667	1	obsgroup
obs828	632.302083	1	obsgroup
obs829	564.000000	1	obsgroup
obs830	505.781250	1	obsgroup
obs831	454.604167	1	obsgroup
obs832	461.500000	1	obsgroup
obs833	490.468750	1	obsgroup
obs834	445.500000	1	obsgroup
obs835	402.729167	1	obsgroup
obs836	360.322917	1	obsgroup
obs837	390.166667	1	obsgroup
obs838	393.125000	1	obsgroup
obs839	386.906250	1	obsgroup
obs840	393.468750	1	obsgroup
obs841	412.833333	1	obsgroup
obs842	382.250000	1	obsgroup
obs843	350.072917	1	obsgroup
obs844	318.197917	1	obsgroup
obs845	288.031250	1	obsgroup
obs846	268.145833	1	obsgroup
obs847	261.781250	1	obsgroup
obs848	254.177083	1	obsgroup
obs849	232.125000	1	obsgroup
obs850	217.458333	1	obsgroup
obs851	217.336735	1	obsgroup
obs852	211.072917	1	obsgroup
obs853	199.864583	1	obsgroup
obs854	301.888889	1	obsgroup
obs855	345.645833	1	obsgroup
obs856	279.343750	1	obsgroup
obs857	241.833333	1	obsgroup
obs858	221.041667	1	obsgroup
obs859	205.572917	1	obsgroup
obs860	189.416667	1	obsgroup
obs861	176.500000	1	obsgroup
obs862	169.500000	1	obsgroup
obs863	163.375000	1	obsgroup
obs864	157.416667	1	obsgroup
obs865	161.437500	1	obsgroup
obs866	160.968750	1	obsgroup
obs867	152.718750	1	obsgroup
obs868	140.187500	1	obsgroup
obs869	132.572917	1	obsgroup
obs870	128.489583	1	obsgroup
obs871	125.812500	1	obsgroup
obs872	128.653061	1	obsgroup
obs873	144.312500	1	obsgroup
obs874	137.052083	1	obsgroup
obs875	126.093750	1	obsgroup
obs876	153.123711	1	obsgroup
obs877	128.406250	1	obsgroup
obs878	120.343750	1	obsgroup
obs879	118.812500	1	obsgroup
obs880	111.729167	1	obsgroup
obs881	106.562500	1	obsgroup
obs882	101.958333	1	obsgroup
obs883	99.150000	1	obsgroup
obs884	97.925000	1	obsgroup
obs885	95.275000	1	obsgroup
obs886	107.053125	1	obsgroup
obs887	121.416667	1	obsgroup
obs888	103.346875	1	obsgroup
obs889	100.632292	1	obsgroup
obs890	105.135417	1	obsgroup
obs891	107.166667	1	obsgroup
obs892	97.527083	1	obsgroup
obs893	91.123958	1	obsgroup
obs894	87.058333	1	obsgroup
obs895	84.283333	1	obsgroup
obs896	80.410417	1	obsgroup
obs897	77.537500	1	obsgroup
obs898	75.583333	1	obsgroup
obs899	72.856250	1	obsgroup
obs900	70.868750	1	obsgroup
obs901	70.952083	1	obsgroup
obs902	71.566667	1	obsgroup
obs903	68.309375	1	obsgroup
obs904	67.730208	1	obsgroup
obs905	78.082292	1	obsgroup
obs906	74.393750	1	obsgroup
obs907	73.693750	1	obsgroup
obs908	87.415625	1	obsgroup
obs909	83.325000	1	obsgroup
obs910	71.945833	1	obsgroup
obs911	67.872917	1	obsgroup
obs912	67.090625	1	obsgroup
obs913	73.162500	1	obsgroup
obs914	67.985417	1	obsgroup
obs915	62.432292	1	obsgroup
obs916	60.090625	1	obsgroup
obs917	57.325000	1	obsgroup
obs918	55.534375	1	obsgroup
obs919	53.239583	1	obsgroup
obs920	51.657292	1	obsgroup
obs921	49.428125	1	obsgroup
obs922	46.791667	1	obsgroup
obs923	45.583333	1	obsgroup
obs924	44.191667	1	obsgroup
obs925	43.166667	1	obsgroup
obs926	42.940625	1	obsgroup
obs927	42.084375	1	obsgroup
obs928	41.183333	1	obsgroup
obs929	42.114583	1	obsgroup
obs930	41.962500	1	obsgroup
obs931	43.538202	1	obsgroup
obs932	43.375000	1	obsgroup
obs933	42.925000	1	obsgroup
obs934	40.441667	1	obsgroup
obs935	39.068750	1	obsgroup
obs936	37.379167	1	obsgroup
obs937	36.912500	1	obsgroup
obs938	35.855208	1	obsgroup
obs939	34.316667	1	obsgroup
obs940	34.353125	1	obsgroup
obs941	35.293750	1	obsgroup
obs942	34.936458	1	obsgroup
obs943	34.642708	1	obsgroup
obs944	31.784375	1	obsgroup
obs945	31.002083	1	obsgroup
obs946	30.126042	1	obsgroup
obs947	28.026042	1	obsgroup
obs948	26.681250	1	obsgroup
obs949	26.451042	1	obsgroup
obs950	25.878125	1	obsgroup
obs951	25.381250	1	obsgroup
obs952	24.950000	1	obsgroup
obs953	24.017708	1	obsgroup
obs954	23.059375	1	obsgroup
obs955	23.406250	1	obsgroup
obs956	21.766667	1	obsgroup
obs957	20.381250	1	obsgroup
obs958	19.493750	1	obsgroup
obs959	19.019792	1	obsgroup