pcf
* control data
restart  estimation
    8  3287     8     0     1
    1     1 single point   1   0   0
  5.0   2.0   0.3  0.03    10  999  lamforgive  derforgive
  3.0   3.0 0.001  0
  0.1
   30  0.01     3     3  0.01     3
    1     1     1     1
* parameter groups
fc           relative 0.01  0.0  switch  2.0 parabolic
beta         relative 0.01  0.0  switch  2.0 parabolic
perc         relative 0.01  0.0  switch  2.0 parabolic
uzl          relative 0.01  0.0  switch  2.0 parabolic
k0           relative 0.01  0.0  switch  2.0 parabolic
k1           relative 0.01  0.0  switch  2.0 parabolic
k2           relative 0.01  0.0  switch  2.0 parabolic
et_mult      relative 0.01  0.0  switch  2.0 parabolic
* parameter data
fc           none relative   425.707      50.000000  600.000000      fc              1.0000        0.0000      1
beta         none relative   3.6324       1.000000    6.000000       beta            1.0000        0.0000      1
perc         none relative   0.076508     0.000100    0.500000       perc            1.0000        0.0000      1
uzl          none relative   48.8908      0.100000   75.000000       uzl             1.0000        0.0000      1
k0           none relative   0.214112     0.050000    0.700000       k0              1.0000        0.0000      1
k1           none relative   0.147432     0.010000    0.400000       k1              1.0000        0.0000      1
k2           none relative   0.0001	  0.000100    0.150000       k2              1.0000        0.0000      1
et_mult      none relative   0.94121      0.100000    10.00000       et_mult         1.0000        0.0000      1
* observation groups
obsgroup
* observation data
obs1	1865.000000	1	obsgroup
obs2	1671.666667	1	obsgroup
obs3	1276.666667	1	obsgroup
obs4	1001.604167	1	obsgroup
obs5	849.125000	1	obsgroup
obs6	1092.687500	1	obsgroup
obs7	1063.708333	1	obsgroup
obs8	957.583333	1	obsgroup
obs9	905.041667	1	obsgroup
obs10	765.833333	1	obsgroup
obs11	666.541667	1	obsgroup
obs12	912.645833	1	obsgroup
obs13	1200.208333	1	obsgroup
obs14	1279.375000	1	obsgroup
obs15	1166.666667	1	obsgroup
obs16	1520.833333	1	obsgroup
obs17	1419.583333	1	obsgroup
obs18	1529.375000	1	obsgroup
obs19	1327.916667	1	obsgroup
obs20	1088.125000	1	obsgroup
obs21	905.208333	1	obsgroup
obs22	757.270833	1	obsgroup
obs23	636.645833	1	obsgroup
obs24	591.229167	1	obsgroup
obs25	709.416667	1	obsgroup
obs26	653.750000	1	obsgroup
obs27	561.416667	1	obsgroup
obs28	502.375000	1	obsgroup
obs29	459.791667	1	obsgroup
obs30	433.750000	1	obsgroup
obs31	421.125000	1	obsgroup
obs32	425.458333	1	obsgroup
obs33	498.770833	1	obsgroup
obs34	544.020833	1	obsgroup
obs35	620.416667	1	obsgroup
obs36	633.437500	1	obsgroup
obs37	577.375000	1	obsgroup
obs38	565.937500	1	obsgroup
obs39	506.791667	1	obsgroup
obs40	467.291667	1	obsgroup
obs41	438.041667	1	obsgroup
obs42	453.875000	1	obsgroup
obs43	748.958333	1	obsgroup
obs44	887.395833	1	obsgroup
obs45	812.416667	1	obsgroup
obs46	721.145833	1	obsgroup
obs47	661.958333	1	obsgroup
obs48	597.062500	1	obsgroup
obs49	534.854167	1	obsgroup
obs50	485.104167	1	obsgroup
obs51	442.291667	1	obsgroup
obs52	403.937500	1	obsgroup
obs53	370.020833	1	obsgroup
obs54	376.916667	1	obsgroup
obs55	579.833333	1	obsgroup
obs56	564.104167	1	obsgroup
obs57	965.604167	1	obsgroup
obs58	1180.208333	1	obsgroup
obs59	954.354167	1	obsgroup
obs60	775.520833	1	obsgroup
obs61	664.020833	1	obsgroup
obs62	589.583333	1	obsgroup
obs63	531.895833	1	obsgroup
obs64	470.625000	1	obsgroup
obs65	425.812500	1	obsgroup
obs66	390.500000	1	obsgroup
obs67	363.187500	1	obsgroup
obs68	337.083333	1	obsgroup
obs69	341.104167	1	obsgroup
obs70	372.875000	1	obsgroup
obs71	1128.854167	1	obsgroup
obs72	1241.458333	1	obsgroup
obs73	939.543478	1	obsgroup
obs74	759.791667	1	obsgroup
obs75	637.562500	1	obsgroup
obs76	548.395833	1	obsgroup
obs77	484.250000	1	obsgroup
obs78	434.875000	1	obsgroup
obs79	396.750000	1	obsgroup
obs80	369.958333	1	obsgroup
obs81	362.395833	1	obsgroup
obs82	339.687500	1	obsgroup
obs83	311.604167	1	obsgroup
obs84	394.625000	1	obsgroup
obs85	1135.041667	1	obsgroup
obs86	1066.041667	1	obsgroup
obs87	853.083333	1	obsgroup
obs88	1797.833333	1	obsgroup
obs89	3000.416667	1	obsgroup
obs90	2465.416667	1	obsgroup
obs91	1621.250000	1	obsgroup
obs92	1453.750000	1	obsgroup
obs93	1473.750000	1	obsgroup
obs94	1315.208333	1	obsgroup
obs95	1235.000000	1	obsgroup
obs96	1449.791667	1	obsgroup
obs97	1289.791667	1	obsgroup
obs98	1193.541667	1	obsgroup
obs99	1041.604167	1	obsgroup
obs100	887.750000	1	obsgroup
obs101	813.187500	1	obsgroup
obs102	805.125000	1	obsgroup
obs103	707.020833	1	obsgroup
obs104	613.625000	1	obsgroup
obs105	559.083333	1	obsgroup
obs106	501.604167	1	obsgroup
obs107	453.687500	1	obsgroup
obs108	416.666667	1	obsgroup
obs109	388.270833	1	obsgroup
obs110	385.895833	1	obsgroup
obs111	359.270833	1	obsgroup
obs112	326.812500	1	obsgroup
obs113	304.000000	1	obsgroup
obs114	289.333333	1	obsgroup
obs115	275.854167	1	obsgroup
obs116	268.666667	1	obsgroup
obs117	608.458333	1	obsgroup
obs118	713.083333	1	obsgroup
obs119	744.083333	1	obsgroup
obs120	673.395833	1	obsgroup
obs121	582.812500	1	obsgroup
obs122	507.958333	1	obsgroup
obs123	485.000000	1	obsgroup
obs124	480.229167	1	obsgroup
obs125	435.750000	1	obsgroup
obs126	398.583333	1	obsgroup
obs127	368.479167	1	obsgroup
obs128	342.520833	1	obsgroup
obs129	318.375000	1	obsgroup
obs130	303.708333	1	obsgroup
obs131	288.979167	1	obsgroup
obs132	267.000000	1	obsgroup
obs133	251.125000	1	obsgroup
obs134	236.562500	1	obsgroup
obs135	222.645833	1	obsgroup
obs136	211.791667	1	obsgroup
obs137	202.854167	1	obsgroup
obs138	199.729167	1	obsgroup
obs139	202.854167	1	obsgroup
obs140	211.020833	1	obsgroup
obs141	229.187500	1	obsgroup
obs142	277.916667	1	obsgroup
obs143	266.583333	1	obsgroup
obs144	232.791667	1	obsgroup
obs145	217.895833	1	obsgroup
obs146	239.812500	1	obsgroup
obs147	245.020833	1	obsgroup
obs148	221.666667	1	obsgroup
obs149	205.645833	1	obsgroup
obs150	195.062500	1	obsgroup
obs151	200.145833	1	obsgroup
obs152	195.791667	1	obsgroup
obs153	324.354167	1	obsgroup
obs154	468.687500	1	obsgroup
obs155	855.729167	1	obsgroup
obs156	742.958333	1	obsgroup
obs157	585.541667	1	obsgroup
obs158	492.708333	1	obsgroup
obs159	418.208333	1	obsgroup
obs160	384.791667	1	obsgroup
obs161	429.166667	1	obsgroup
obs162	426.000000	1	obsgroup
obs163	384.916667	1	obsgroup
obs164	346.000000	1	obsgroup
obs165	311.583333	1	obsgroup
obs166	285.145833	1	obsgroup
obs167	265.833333	1	obsgroup
obs168	252.333333	1	obsgroup
obs169	243.812500	1	obsgroup
obs170	230.145833	1	obsgroup
obs171	214.958333	1	obsgroup
obs172	206.833333	1	obsgroup
obs173	196.645833	1	obsgroup
obs174	184.750000	1	obsgroup
obs175	172.958333	1	obsgroup
obs176	159.083333	1	obsgroup
obs177	151.000000	1	obsgroup
obs178	143.020833	1	obsgroup
obs179	133.583333	1	obsgroup
obs180	128.354167	1	obsgroup
obs181	122.062500	1	obsgroup
obs182	115.062500	1	obsgroup
obs183	115.520833	1	obsgroup
obs184	116.437500	1	obsgroup
obs185	107.625000	1	obsgroup
obs186	101.008333	1	obsgroup
obs187	95.775000	1	obsgroup
obs188	88.977083	1	obsgroup
obs189	81.247917	1	obsgroup
obs190	77.150000	1	obsgroup
obs191	72.518750	1	obsgroup
obs192	70.775000	1	obsgroup
obs193	69.518750	1	obsgroup
obs194	67.875000	1	obsgroup
obs195	65.122917	1	obsgroup
obs196	62.004167	1	obsgroup
obs197	59.333333	1	obsgroup
obs198	57.756250	1	obsgroup
obs199	56.122917	1	obsgroup
obs200	56.545833	1	obsgroup
obs201	54.216667	1	obsgroup
obs202	52.116667	1	obsgroup
obs203	51.000000	1	obsgroup
obs204	49.608333	1	obsgroup
obs205	48.252083	1	obsgroup
obs206	46.135417	1	obsgroup
obs207	43.793750	1	obsgroup
obs208	42.639583	1	obsgroup
obs209	42.400000	1	obsgroup
obs210	42.283333	1	obsgroup
obs211	41.372917	1	obsgroup
obs212	40.787500	1	obsgroup
obs213	40.729167	1	obsgroup
obs214	40.697917	1	obsgroup
obs215	39.783333	1	obsgroup
obs216	38.279167	1	obsgroup
obs217	37.652083	1	obsgroup
obs218	35.829167	1	obsgroup
obs219	35.429167	1	obsgroup
obs220	34.402083	1	obsgroup
obs221	33.831250	1	obsgroup
obs222	33.841667	1	obsgroup
obs223	34.160417	1	obsgroup
obs224	32.437500	1	obsgroup
obs225	31.252083	1	obsgroup
obs226	29.222917	1	obsgroup
obs227	28.410417	1	obsgroup
obs228	27.160417	1	obsgroup
obs229	26.854167	1	obsgroup
obs230	26.572917	1	obsgroup
obs231	26.412500	1	obsgroup
obs232	26.866667	1	obsgroup
obs233	25.983333	1	obsgroup
obs234	25.968750	1	obsgroup
obs235	24.737500	1	obsgroup
obs236	22.466667	1	obsgroup
obs237	20.462500	1	obsgroup
obs238	19.827083	1	obsgroup
obs239	19.272917	1	obsgroup
obs240	18.781250	1	obsgroup
obs241	19.243750	1	obsgroup
obs242	26.831250	1	obsgroup
obs243	29.652083	1	obsgroup
obs244	29.781250	1	obsgroup
obs245	29.900000	1	obsgroup
obs246	32.706250	1	obsgroup
obs247	25.466667	1	obsgroup
obs248	22.875000	1	obsgroup
obs249	21.591667	1	obsgroup
obs250	22.883333	1	obsgroup
obs251	26.145833	1	obsgroup
obs252	24.916667	1	obsgroup
obs253	24.675000	1	obsgroup
obs254	23.900000	1	obsgroup
obs255	21.912500	1	obsgroup
obs256	21.031250	1	obsgroup
obs257	19.931250	1	obsgroup
obs258	19.787500	1	obsgroup
obs259	21.316667	1	obsgroup
obs260	22.600000	1	obsgroup
obs261	34.612500	1	obsgroup
obs262	60.183333	1	obsgroup
obs263	61.381250	1	obsgroup
obs264	51.087500	1	obsgroup
obs265	44.464583	1	obsgroup
obs266	37.570833	1	obsgroup
obs267	35.145833	1	obsgroup
obs268	33.352083	1	obsgroup
obs269	32.697917	1	obsgroup
obs270	32.643750	1	obsgroup
obs271	31.618750	1	obsgroup
obs272	31.500000	1	obsgroup
obs273	29.785417	1	obsgroup
obs274	28.756250	1	obsgroup
obs275	28.408333	1	obsgroup
obs276	27.850000	1	obsgroup
obs277	27.989583	1	obsgroup
obs278	27.470833	1	obsgroup
obs279	26.870833	1	obsgroup
obs280	26.381250	1	obsgroup
obs281	27.412500	1	obsgroup
obs282	30.912500	1	obsgroup
obs283	40.920833	1	obsgroup
obs284	49.429167	1	obsgroup
obs285	48.247917	1	obsgroup
obs286	38.091667	1	obsgroup
obs287	33.525000	1	obsgroup
obs288	31.502083	1	obsgroup
obs289	29.800000	1	obsgroup
obs290	28.733333	1	obsgroup
obs291	29.143750	1	obsgroup
obs292	28.318750	1	obsgroup
obs293	27.877083	1	obsgroup
obs294	27.483333	1	obsgroup
obs295	27.789583	1	obsgroup
obs296	28.802083	1	obsgroup
obs297	138.462500	1	obsgroup
obs298	247.916667	1	obsgroup
obs299	238.791667	1	obsgroup
obs300	168.770833	1	obsgroup
obs301	127.229167	1	obsgroup
obs302	110.750000	1	obsgroup
obs303	92.502083	1	obsgroup
obs304	114.502083	1	obsgroup
obs305	126.958333	1	obsgroup
obs306	144.062500	1	obsgroup
obs307	162.979167	1	obsgroup
obs308	128.916667	1	obsgroup
obs309	105.454167	1	obsgroup
obs310	92.164583	1	obsgroup
obs311	182.860000	1	obsgroup
obs312	217.354167	1	obsgroup
obs313	208.270833	1	obsgroup
obs314	395.000000	1	obsgroup
obs315	369.916667	1	obsgroup
obs316	272.312500	1	obsgroup
obs317	219.000000	1	obsgroup
obs318	190.770833	1	obsgroup
obs319	169.437500	1	obsgroup
obs320	164.500000	1	obsgroup
obs321	182.833333	1	obsgroup
obs322	810.770833	1	obsgroup
obs323	892.375000	1	obsgroup
obs324	728.562500	1	obsgroup
obs325	583.166667	1	obsgroup
obs326	629.166667	1	obsgroup
obs327	974.520833	1	obsgroup
obs328	731.791667	1	obsgroup
obs329	543.687500	1	obsgroup
obs330	476.666667	1	obsgroup
obs331	550.500000	1	obsgroup
obs332	530.104167	1	obsgroup
obs333	476.604167	1	obsgroup
obs334	615.729167	1	obsgroup
obs335	1262.708333	1	obsgroup
obs336	1061.916667	1	obsgroup
obs337	814.520833	1	obsgroup
obs338	645.812500	1	obsgroup
obs339	529.812500	1	obsgroup
obs340	452.604167	1	obsgroup
obs341	402.125000	1	obsgroup
obs342	672.187500	1	obsgroup
obs343	1443.354167	1	obsgroup
obs344	2138.541667	1	obsgroup
obs345	1889.791667	1	obsgroup
obs346	1876.875000	1	obsgroup
obs347	1705.000000	1	obsgroup
obs348	2387.500000	1	obsgroup
obs349	2166.666667	1	obsgroup
obs350	1643.750000	1	obsgroup
obs351	1287.291667	1	obsgroup
obs352	1172.083333	1	obsgroup
obs353	1148.125000	1	obsgroup
obs354	1218.750000	1	obsgroup
obs355	1201.875000	1	obsgroup
obs356	1005.666667	1	obsgroup
obs357	827.895833	1	obsgroup
obs358	702.145833	1	obsgroup
obs359	633.583333	1	obsgroup
obs360	814.312500	1	obsgroup
obs361	1088.083333	1	obsgroup
obs362	1835.208333	1	obsgroup
obs363	3421.875000	1	obsgroup
obs364	2602.916667	1	obsgroup
obs365	1741.250000	1	obsgroup
obs366	1275.000000	1	obsgroup
obs367	997.625000	1	obsgroup
obs368	811.979167	1	obsgroup
obs369	682.312500	1	obsgroup
obs370	595.562500	1	obsgroup
obs371	531.791667	1	obsgroup
obs372	479.895833	1	obsgroup
obs373	446.895833	1	obsgroup
obs374	422.937500	1	obsgroup
obs375	405.458333	1	obsgroup
obs376	371.812500	1	obsgroup
obs377	420.312500	1	obsgroup
obs378	699.208333	1	obsgroup
obs379	822.312500	1	obsgroup
obs380	846.041667	1	obsgroup
obs381	2655.833333	1	obsgroup
obs382	4610.208333	1	obsgroup
obs383	3149.791667	1	obsgroup
obs384	1987.916667	1	obsgroup
obs385	1431.458333	1	obsgroup
obs386	1133.750000	1	obsgroup
obs387	934.145833	1	obsgroup
obs388	778.625000	1	obsgroup
obs389	665.270833	1	obsgroup
obs390	579.270833	1	obsgroup
obs391	515.854167	1	obsgroup
obs392	468.145833	1	obsgroup
obs393	428.666667	1	obsgroup
obs394	399.229167	1	obsgroup
obs395	371.395833	1	obsgroup
obs396	341.979167	1	obsgroup
obs397	317.562500	1	obsgroup
obs398	297.500000	1	obsgroup
obs399	281.187500	1	obsgroup
obs400	268.250000	1	obsgroup
obs401	258.687500	1	obsgroup
obs402	250.229167	1	obsgroup
obs403	252.375000	1	obsgroup
obs404	268.270833	1	obsgroup
obs405	251.500000	1	obsgroup
obs406	235.500000	1	obsgroup
obs407	226.562500	1	obsgroup
obs408	220.354167	1	obsgroup
obs409	281.187500	1	obsgroup
obs410	317.625000	1	obsgroup
obs411	849.062500	1	obsgroup
obs412	907.708333	1	obsgroup
obs413	702.895833	1	obsgroup
obs414	582.854167	1	obsgroup
obs415	525.708333	1	obsgroup
obs416	461.479167	1	obsgroup
obs417	420.333333	1	obsgroup
obs418	410.104167	1	obsgroup
obs419	460.520833	1	obsgroup
obs420	554.562500	1	obsgroup
obs421	510.645833	1	obsgroup
obs422	451.583333	1	obsgroup
obs423	429.354167	1	obsgroup
obs424	1199.333333	1	obsgroup
obs425	3319.375000	1	obsgroup
obs426	3036.041667	1	obsgroup
obs427	2042.083333	1	obsgroup
obs428	1555.833333	1	obsgroup
obs429	1458.125000	1	obsgroup
obs430	1169.583333	1	obsgroup
obs431	968.770833	1	obsgroup
obs432	840.208333	1	obsgroup
obs433	753.312500	1	obsgroup
obs434	1128.895833	1	obsgroup
obs435	1075.479167	1	obsgroup
obs436	879.458333	1	obsgroup
obs437	854.782609	1	obsgroup
obs438	1305.208333	1	obsgroup
obs439	1427.083333	1	obsgroup
obs440	2081.041667	1	obsgroup
obs441	2164.583333	1	obsgroup
obs442	1698.541667	1	obsgroup
obs443	1341.875000	1	obsgroup
obs444	1098.750000	1	obsgroup
obs445	942.770833	1	obsgroup
obs446	807.333333	1	obsgroup
obs447	700.229167	1	obsgroup
obs448	652.854167	1	obsgroup
obs449	653.395833	1	obsgroup
obs450	665.166667	1	obsgroup
obs451	780.083333	1	obsgroup
obs452	964.520833	1	obsgroup
obs453	919.937500	1	obsgroup
obs454	1047.520833	1	obsgroup
obs455	1085.833333	1	obsgroup
obs456	1015.020833	1	obsgroup
obs457	919.083333	1	obsgroup
obs458	814.083333	1	obsgroup
obs459	706.541667	1	obsgroup
obs460	684.645833	1	obsgroup
obs461	699.000000	1	obsgroup
obs462	759.791667	1	obsgroup
obs463	715.212766	1	obsgroup
obs464	642.979167	1	obsgroup
obs465	577.750000	1	obsgroup
obs466	542.395833	1	obsgroup
obs467	514.729167	1	obsgroup
obs468	0.000000	0	obsgroup
obs469	0.000000	0	obsgroup
obs470	0.000000	0	obsgroup
obs471	0.000000	0	obsgroup
obs472	0.000000	0	obsgroup
obs473	0.000000	0	obsgroup
obs474	0.000000	0	obsgroup
obs475	0.000000	0	obsgroup
obs476	0.000000	0	obsgroup
obs477	0.000000	0	obsgroup
obs478	0.000000	0	obsgroup
obs479	0.000000	0	obsgroup
obs480	0.000000	0	obsgroup
obs481	947.062500	1	obsgroup
obs482	0.000000	0	obsgroup
obs483	0.000000	0	obsgroup
obs484	0.000000	0	obsgroup
obs485	850.437500	1	obsgroup
obs486	752.750000	1	obsgroup
obs487	657.520833	1	obsgroup
obs488	576.729167	1	obsgroup
obs489	510.041667	1	obsgroup
obs490	460.750000	1	obsgroup
obs491	425.187500	1	obsgroup
obs492	411.854167	1	obsgroup
obs493	388.250000	1	obsgroup
obs494	365.833333	1	obsgroup
obs495	335.395833	1	obsgroup
obs496	316.875000	1	obsgroup
obs497	306.395833	1	obsgroup
obs498	286.729167	1	obsgroup
obs499	273.520833	1	obsgroup
obs500	264.416667	1	obsgroup
obs501	254.666667	1	obsgroup
obs502	254.104167	1	obsgroup
obs503	259.000000	1	obsgroup
obs504	235.520833	1	obsgroup
obs505	220.916667	1	obsgroup
obs506	212.541667	1	obsgroup
obs507	205.166667	1	obsgroup
obs508	197.979167	1	obsgroup
obs509	194.916667	1	obsgroup
obs510	213.395833	1	obsgroup
obs511	214.979167	1	obsgroup
obs512	261.791667	1	obsgroup
obs513	278.604167	1	obsgroup
obs514	276.437500	1	obsgroup
obs515	251.395833	1	obsgroup
obs516	259.458333	1	obsgroup
obs517	264.145833	1	obsgroup
obs518	250.750000	1	obsgroup
obs519	231.791667	1	obsgroup
obs520	214.937500	1	obsgroup
obs521	198.750000	1	obsgroup
obs522	187.958333	1	obsgroup
obs523	179.187500	1	obsgroup
obs524	174.250000	1	obsgroup
obs525	165.437500	1	obsgroup
obs526	157.729167	1	obsgroup
obs527	152.333333	1	obsgroup
obs528	149.395833	1	obsgroup
obs529	155.312500	1	obsgroup
obs530	147.729167	1	obsgroup
obs531	136.104167	1	obsgroup
obs532	127.562500	1	obsgroup
obs533	122.479167	1	obsgroup
obs534	116.312500	1	obsgroup
obs535	115.104167	1	obsgroup
obs536	113.083333	1	obsgroup
obs537	109.687500	1	obsgroup
obs538	103.058333	1	obsgroup
obs539	98.070833	1	obsgroup
obs540	94.831250	1	obsgroup
obs541	90.956250	1	obsgroup
obs542	86.322917	1	obsgroup
obs543	84.720833	1	obsgroup
obs544	91.670833	1	obsgroup
obs545	95.068750	1	obsgroup
obs546	88.537500	1	obsgroup
obs547	82.464583	1	obsgroup
obs548	77.175000	1	obsgroup
obs549	72.931250	1	obsgroup
obs550	71.487500	1	obsgroup
obs551	66.906250	1	obsgroup
obs552	63.716667	1	obsgroup
obs553	60.716667	1	obsgroup
obs554	59.564583	1	obsgroup
obs555	57.787500	1	obsgroup
obs556	56.020833	1	obsgroup
obs557	54.989583	1	obsgroup
obs558	58.666667	1	obsgroup
obs559	63.564583	1	obsgroup
obs560	60.666667	1	obsgroup
obs561	56.612500	1	obsgroup
obs562	66.435417	1	obsgroup
obs563	71.343750	1	obsgroup
obs564	71.787500	1	obsgroup
obs565	67.318750	1	obsgroup
obs566	60.341667	1	obsgroup
obs567	55.589583	1	obsgroup
obs568	53.133333	1	obsgroup
obs569	49.987500	1	obsgroup
obs570	46.618750	1	obsgroup
obs571	44.618750	1	obsgroup
obs572	43.775000	1	obsgroup
obs573	42.720833	1	obsgroup
obs574	40.970833	1	obsgroup
obs575	41.064583	1	obsgroup
obs576	38.308333	1	obsgroup
obs577	37.433333	1	obsgroup
obs578	35.639583	1	obsgroup
obs579	33.922917	1	obsgroup
obs580	32.939583	1	obsgroup
obs581	32.372917	1	obsgroup
obs582	31.956250	1	obsgroup
obs583	31.652083	1	obsgroup
obs584	31.672917	1	obsgroup
obs585	31.172917	1	obsgroup
obs586	31.239583	1	obsgroup
obs587	29.837500	1	obsgroup
obs588	28.470833	1	obsgroup
obs589	27.179167	1	obsgroup
obs590	26.175000	1	obsgroup
obs591	26.558333	1	obsgroup
obs592	25.750000	1	obsgroup
obs593	25.412500	1	obsgroup
obs594	24.512500	1	obsgroup
obs595	23.562500	1	obsgroup
obs596	23.200000	1	obsgroup
obs597	22.202083	1	obsgroup
obs598	20.895833	1	obsgroup
obs599	20.900000	1	obsgroup
obs600	20.806250	1	obsgroup
obs601	20.681250	1	obsgroup
obs602	19.875000	1	obsgroup
obs603	19.539583	1	obsgroup
obs604	18.695833	1	obsgroup
obs605	18.529167	1	obsgroup
obs606	18.081250	1	obsgroup
obs607	17.579167	1	obsgroup
obs608	17.175000	1	obsgroup
obs609	16.710417	1	obsgroup
obs610	16.335417	1	obsgroup
obs611	16.072917	1	obsgroup
obs612	15.610417	1	obsgroup
obs613	14.910417	1	obsgroup
obs614	14.802083	1	obsgroup
obs615	14.647917	1	obsgroup
obs616	14.231250	1	obsgroup
obs617	14.041667	1	obsgroup
obs618	13.147917	1	obsgroup
obs619	13.279167	1	obsgroup
obs620	13.404167	1	obsgroup
obs621	13.977083	1	obsgroup
obs622	14.706250	1	obsgroup
obs623	14.812500	1	obsgroup
obs624	14.791667	1	obsgroup
obs625	14.814583	1	obsgroup
obs626	14.685417	1	obsgroup
obs627	13.945833	1	obsgroup
obs628	14.254167	1	obsgroup
obs629	13.800000	1	obsgroup
obs630	12.862500	1	obsgroup
obs631	13.310417	1	obsgroup
obs632	13.029167	1	obsgroup
obs633	12.675000	1	obsgroup
obs634	13.747917	1	obsgroup
obs635	13.352083	1	obsgroup
obs636	14.083333	1	obsgroup
obs637	14.014583	1	obsgroup
obs638	14.206250	1	obsgroup
obs639	14.429167	1	obsgroup
obs640	20.200000	1	obsgroup
obs641	28.533333	1	obsgroup
obs642	30.306250	1	obsgroup
obs643	38.481250	1	obsgroup
obs644	35.781250	1	obsgroup
obs645	33.104167	1	obsgroup
obs646	28.233333	1	obsgroup
obs647	26.150000	1	obsgroup
obs648	28.552083	1	obsgroup
obs649	34.514583	1	obsgroup
obs650	43.547917	1	obsgroup
obs651	40.912500	1	obsgroup
obs652	32.908333	1	obsgroup
obs653	29.352083	1	obsgroup
obs654	27.268750	1	obsgroup
obs655	25.787500	1	obsgroup
obs656	25.012500	1	obsgroup
obs657	23.875000	1	obsgroup
obs658	23.250000	1	obsgroup
obs659	23.437500	1	obsgroup
obs660	23.262500	1	obsgroup
obs661	23.425000	1	obsgroup
obs662	23.187500	1	obsgroup
obs663	22.550000	1	obsgroup
obs664	22.612500	1	obsgroup
obs665	22.912500	1	obsgroup
obs666	22.500000	1	obsgroup
obs667	23.887500	1	obsgroup
obs668	24.925000	1	obsgroup
obs669	26.058333	1	obsgroup
obs670	27.964583	1	obsgroup
obs671	30.031250	1	obsgroup
obs672	29.220833	1	obsgroup
obs673	29.737500	1	obsgroup
obs674	35.366667	1	obsgroup
obs675	49.806000	1	obsgroup
obs676	47.735417	1	obsgroup
obs677	42.314583	1	obsgroup
obs678	37.679167	1	obsgroup
obs679	32.058333	1	obsgroup
obs680	30.677083	1	obsgroup
obs681	30.637500	1	obsgroup
obs682	34.125000	1	obsgroup
obs683	40.981250	1	obsgroup
obs684	44.429167	1	obsgroup
obs685	42.481250	1	obsgroup
obs686	114.131250	1	obsgroup
obs687	237.187500	1	obsgroup
obs688	281.270833	1	obsgroup
obs689	237.666667	1	obsgroup
obs690	186.333333	1	obsgroup
obs691	601.250000	1	obsgroup
obs692	1037.604167	1	obsgroup
obs693	903.583333	1	obsgroup
obs694	658.916667	1	obsgroup
obs695	481.229167	1	obsgroup
obs696	371.395833	1	obsgroup
obs697	389.479167	1	obsgroup
obs698	332.958333	1	obsgroup
obs699	291.437500	1	obsgroup
obs700	261.166667	1	obsgroup
obs701	229.520833	1	obsgroup
obs702	205.791667	1	obsgroup
obs703	185.437500	1	obsgroup
obs704	169.875000	1	obsgroup
obs705	156.375000	1	obsgroup
obs706	144.604167	1	obsgroup
obs707	135.895833	1	obsgroup
obs708	127.479167	1	obsgroup
obs709	120.062500	1	obsgroup
obs710	112.958333	1	obsgroup
obs711	107.208333	1	obsgroup
obs712	101.343750	1	obsgroup
obs713	96.612500	1	obsgroup
obs714	97.229167	1	obsgroup
obs715	94.772917	1	obsgroup
obs716	91.970833	1	obsgroup
obs717	87.266667	1	obsgroup
obs718	83.160417	1	obsgroup
obs719	79.739583	1	obsgroup
obs720	77.018750	1	obsgroup
obs721	74.281250	1	obsgroup
obs722	71.862500	1	obsgroup
obs723	69.425000	1	obsgroup
obs724	72.627083	1	obsgroup
obs725	86.995833	1	obsgroup
obs726	0.000000	0	obsgroup
obs727	0.000000	0	obsgroup
obs728	0.000000	0	obsgroup
obs729	0.000000	0	obsgroup
obs730	0.000000	0	obsgroup
obs731	0.000000	0	obsgroup
obs732	0.000000	0	obsgroup
obs733	0.000000	0	obsgroup
obs734	0.000000	0	obsgroup
obs735	0.000000	0	obsgroup
obs736	0.000000	0	obsgroup
obs737	0.000000	0	obsgroup
obs738	0.000000	0	obsgroup
obs739	0.000000	0	obsgroup
obs740	0.000000	0	obsgroup
obs741	0.000000	0	obsgroup
obs742	0.000000	0	obsgroup
obs743	0.000000	0	obsgroup
obs744	270.041667	1	obsgroup
obs745	271.375000	1	obsgroup
obs746	265.020833	1	obsgroup
obs747	437.083333	1	obsgroup
obs748	5138.541667	1	obsgroup
obs749	9659.791667	1	obsgroup
obs750	7297.291667	1	obsgroup
obs751	5157.500000	1	obsgroup
obs752	3573.750000	1	obsgroup
obs753	2613.333333	1	obsgroup
obs754	2274.166667	1	obsgroup
obs755	2660.416667	1	obsgroup
obs756	2046.041667	1	obsgroup
obs757	1583.958333	1	obsgroup
obs758	1200.416667	1	obsgroup
obs759	975.541667	1	obsgroup
obs760	999.541667	1	obsgroup
obs761	855.708333	1	obsgroup
obs762	784.375000	1	obsgroup
obs763	691.770833	1	obsgroup
obs764	607.395833	1	obsgroup
obs765	539.750000	1	obsgroup
obs766	484.708333	1	obsgroup
obs767	441.500000	1	obsgroup
obs768	404.875000	1	obsgroup
obs769	403.729167	1	obsgroup
obs770	462.833333	1	obsgroup
obs771	441.041667	1	obsgroup
obs772	425.187500	1	obsgroup
obs773	391.375000	1	obsgroup
obs774	406.083333	1	obsgroup
obs775	401.729167	1	obsgroup
obs776	416.541667	1	obsgroup
obs777	396.875000	1	obsgroup
obs778	388.812500	1	obsgroup
obs779	421.979167	1	obsgroup
obs780	463.687500	1	obsgroup
obs781	477.166667	1	obsgroup
obs782	492.208333	1	obsgroup
obs783	759.520833	1	obsgroup
obs784	1078.958333	1	obsgroup
obs785	954.312500	1	obsgroup
obs786	1131.333333	1	obsgroup
obs787	1175.208333	1	obsgroup
obs788	1004.250000	1	obsgroup
obs789	876.000000	1	obsgroup
obs790	1137.291667	1	obsgroup
obs791	1388.541667	1	obsgroup
obs792	1338.750000	1	obsgroup
obs793	1170.625000	1	obsgroup
obs794	1041.645833	1	obsgroup
obs795	961.833333	1	obsgroup
obs796	961.145833	1	obsgroup
obs797	814.250000	1	obsgroup
obs798	705.083333	1	obsgroup
obs799	623.083333	1	obsgroup
obs800	562.312500	1	obsgroup
obs801	579.913043	1	obsgroup
obs802	703.333333	1	obsgroup
obs803	1865.208333	1	obsgroup
obs804	1585.625000	1	obsgroup
obs805	3609.791667	1	obsgroup
obs806	4202.708333	1	obsgroup
obs807	3412.291667	1	obsgroup
obs808	2438.541667	1	obsgroup
obs809	1730.416667	1	obsgroup
obs810	1354.791667	1	obsgroup
obs811	1606.041667	1	obsgroup
obs812	1545.208333	1	obsgroup
obs813	1526.875000	1	obsgroup
obs814	1431.041667	1	obsgroup
obs815	1298.750000	1	obsgroup
obs816	1210.416667	1	obsgroup
obs817	1104.166667	1	obsgroup
obs818	1133.125000	1	obsgroup
obs819	1743.125000	1	obsgroup
obs820	4338.541667	1	obsgroup
obs821	5607.500000	1	obsgroup
obs822	4295.000000	1	obsgroup
obs823	2801.250000	1	obsgroup
obs824	1906.041667	1	obsgroup
obs825	1496.458333	1	obsgroup
obs826	1323.125000	1	obsgroup
obs827	1105.416667	1	obsgroup
obs828	948.750000	1	obsgroup
obs829	813.812500	1	obsgroup
obs830	706.333333	1	obsgroup
obs831	624.687500	1	obsgroup
obs832	574.645833	1	obsgroup
obs833	536.145833	1	obsgroup
obs834	501.333333	1	obsgroup
obs835	442.729167	1	obsgroup
obs836	400.854167	1	obsgroup
obs837	442.187500	1	obsgroup
obs838	435.395833	1	obsgroup
obs839	411.687500	1	obsgroup
obs840	409.416667	1	obsgroup
obs841	443.979167	1	obsgroup
obs842	427.875000	1	obsgroup
obs843	397.000000	1	obsgroup
obs844	365.437500	1	obsgroup
obs845	337.083333	1	obsgroup
obs846	319.250000	1	obsgroup
obs847	325.875000	1	obsgroup
obs848	365.333333	1	obsgroup
obs849	338.645833	1	obsgroup
obs850	307.916667	1	obsgroup
obs851	306.583333	1	obsgroup
obs852	314.479167	1	obsgroup
obs853	313.520833	1	obsgroup
obs854	605.875000	1	obsgroup
obs855	761.687500	1	obsgroup
obs856	728.229167	1	obsgroup
obs857	635.000000	1	obsgroup
obs858	543.354167	1	obsgroup
obs859	468.625000	1	obsgroup
obs860	410.625000	1	obsgroup
obs861	364.958333	1	obsgroup
obs862	331.166667	1	obsgroup
obs863	302.500000	1	obsgroup
obs864	276.666667	1	obsgroup
obs865	256.604167	1	obsgroup
obs866	239.604167	1	obsgroup
obs867	224.812500	1	obsgroup
obs868	210.666667	1	obsgroup
obs869	202.666667	1	obsgroup
obs870	192.041667	1	obsgroup
obs871	185.416667	1	obsgroup
obs872	188.041667	1	obsgroup
obs873	199.520833	1	obsgroup
obs874	197.500000	1	obsgroup
obs875	203.791667	1	obsgroup
obs876	227.458333	1	obsgroup
obs877	189.270833	1	obsgroup
obs878	173.937500	1	obsgroup
obs879	164.666667	1	obsgroup
obs880	154.750000	1	obsgroup
obs881	145.416667	1	obsgroup
obs882	136.958333	1	obsgroup
obs883	131.291667	1	obsgroup
obs884	130.541667	1	obsgroup
obs885	127.416667	1	obsgroup
obs886	136.520833	1	obsgroup
obs887	153.500000	1	obsgroup
obs888	145.791667	1	obsgroup
obs889	142.666667	1	obsgroup
obs890	150.458333	1	obsgroup
obs891	156.166667	1	obsgroup
obs892	144.479167	1	obsgroup
obs893	129.416667	1	obsgroup
obs894	121.875000	1	obsgroup
obs895	116.541667	1	obsgroup
obs896	109.854167	1	obsgroup
obs897	103.091667	1	obsgroup
obs898	97.270833	1	obsgroup
obs899	91.460417	1	obsgroup
obs900	91.229167	1	obsgroup
obs901	95.622917	1	obsgroup
obs902	92.539583	1	obsgroup
obs903	87.631250	1	obsgroup
obs904	85.925000	1	obsgroup
obs905	93.743750	1	obsgroup
obs906	97.120833	1	obsgroup
obs907	97.483333	1	obsgroup
obs908	116.166667	1	obsgroup
obs909	104.670833	1	obsgroup
obs910	90.166667	1	obsgroup
obs911	85.233333	1	obsgroup
obs912	87.427083	1	obsgroup
obs913	95.193750	1	obsgroup
obs914	89.077083	1	obsgroup
obs915	84.037500	1	obsgroup
obs916	81.818750	1	obsgroup
obs917	76.331250	1	obsgroup
obs918	70.841667	1	obsgroup
obs919	67.029167	1	obsgroup
obs920	65.287500	1	obsgroup
obs921	63.956250	1	obsgroup
obs922	64.108333	1	obsgroup
obs923	62.356250	1	obsgroup
obs924	59.504167	1	obsgroup
obs925	56.320833	1	obsgroup
obs926	54.327083	1	obsgroup
obs927	52.885417	1	obsgroup
obs928	52.337500	1	obsgroup
obs929	52.527083	1	obsgroup
obs930	52.081250	1	obsgroup
obs931	51.847917	1	obsgroup
obs932	50.468750	1	obsgroup
obs933	49.685417	1	obsgroup
obs934	48.383333	1	obsgroup
obs935	46.816667	1	obsgroup
obs936	44.810417	1	obsgroup
obs937	42.625000	1	obsgroup
obs938	41.787500	1	obsgroup
obs939	41.054167	1	obsgroup
obs940	40.587500	1	obsgroup
obs941	38.987500	1	obsgroup
obs942	37.625000	1	obsgroup
obs943	37.187500	1	obsgroup
obs944	35.412500	1	obsgroup
obs945	34.162500	1	obsgroup
obs946	33.945833	1	obsgroup
obs947	32.195833	1	obsgroup
obs948	30.718750	1	obsgroup
obs949	29.787500	1	obsgroup
obs950	29.325000	1	obsgroup
obs951	29.433333	1	obsgroup
obs952	29.622917	1	obsgroup
obs953	27.960417	1	obsgroup
obs954	28.691667	1	obsgroup
obs955	26.708333	1	obsgroup